Circuit: * D:\INGEÑERIA\Circuitos Electronicos II\resoluciones\Draft3.asc

WARNING: Less than two connections to node n002.  This node is used by d1.
.OP point found by inspection.

Date: Mon Sep  2 18:07:57 2024
Total elapsed time: 0.047 seconds.

tnom = 27
temp = 27
method = modified trap
totiter = 2414
traniter = 2414
tranpoints = 1067
accept = 1059
rejected = 8
matrix size = 6
fillins = 0
solver = Normal
Avg thread counts: 1.2/1.4/1.4/1.2
Matrix Compiler1: off  [0.1]/0.1/0.1
Matrix Compiler2: off  [0.1]/0.1/0.1

