Circuit: * D:\INGEÑERIA\Circuitos Electronicos II\resoluciones\Draft4.asc

Warning: Multiple definitions of model "2scr375p" Type: BJT
Warning: Multiple definitions of model "bc857b" Type: BJT
Warning: Multiple definitions of model "bc847c" Type: BJT
Warning: Multiple definitions of model "bc847b" Type: BJT
WARNING: Less than two connections to node nc_01.  This node is used by v2.
Instance "m:u1:5": Length shorter than recommended for a level 2 MOSFET.
Instance "m:u1:6": Length shorter than recommended for a level 2 MOSFET.
Direct Newton iteration failed to find .op point.  (Use ".option noopiter" to skip.)
Starting Gmin stepping
Gmin = 10
Gmin = 1.07374
Gmin = 0.115292
Gmin = 0.0123794
Gmin = 0.00132923
vernier = 0.5
vernier = 0.25
vernier = 0.125
vernier = 0.0625
Gmin = 0.00100083
vernier = 0.03125
vernier = 0.015625
vernier = 0.0078125
vernier = 0.00390625
vernier = 0.00195312
Gmin = 0.00100083
vernier = 0.000976562
vernier = 0.000488281
Gmin = 0
Gmin stepping succeeded in finding the operating point.

Changing Tseed to 1e-08

Date: Mon Sep  2 23:44:51 2024
Total elapsed time: 0.210 seconds.

tnom = 27
temp = 27
method = modified trap
totiter = 3647
traniter = 2121
tranpoints = 1049
accept = 1048
rejected = 0
matrix size = 51
fillins = 65
solver = Normal
Avg thread counts: 1.2/1.4/1.4/1.2
Matrix Compiler1: 5.66 KB object code size  1.2/1.1/[0.4]
Matrix Compiler2: 5.35 KB object code size  0.5/0.7/[0.3]

