Circuit: * D:\INGEÑERIA\Circuitos Electronicos II\resoluciones\puenteDeDiodos.asc

.OP point found by inspection.

Date: Mon Sep  2 16:38:01 2024
Total elapsed time: 0.067 seconds.

tnom = 27
temp = 27
method = modified trap
totiter = 2464
traniter = 2464
tranpoints = 1042
accept = 1042
rejected = 0
matrix size = 5
fillins = 0
solver = Normal
Avg thread counts: 1.2/1.4/1.4/1.2
Matrix Compiler1: 132 bytes object code size  0.1/0.0/[0.0]
Matrix Compiler2: 301 bytes object code size  0.0/0.1/[0.0]

