Circuit: * D:\INGEÑERIA\Circuitos Electronicos II\resoluciones\tp2\Draft2.asc

Warning: Multiple definitions of model "2scr375p" Type: BJT
Warning: Multiple definitions of model "bc857b" Type: BJT
Warning: Multiple definitions of model "bc847c" Type: BJT
Warning: Multiple definitions of model "bc847b" Type: BJT
.OP point found by inspection.

Date: Fri Sep  6 17:31:48 2024
Total elapsed time: 0.078 seconds.

tnom = 27
temp = 27
method = modified trap
totiter = 2082
traniter = 2082
tranpoints = 1042
accept = 1042
rejected = 0
matrix size = 6
fillins = 2
solver = Normal
Avg thread counts: 1.2/1.4/1.4/1.2
Matrix Compiler1: off  [0.1]/0.1/0.1
Matrix Compiler2: off  [0.0]/0.1/0.1

