Circuit: * D:\INGEÑERIA\Circuitos Electronicos II\resoluciones\tp2\problema0.asc

Direct Newton iteration for .op point succeeded.

Date: Thu Sep  5 15:10:08 2024
Total elapsed time: 0.042 seconds.

tnom = 27
temp = 27
method = modified trap
totiter = 2118
traniter = 2082
tranpoints = 1042
accept = 1042
rejected = 0
matrix size = 6
fillins = 0
solver = Normal
Avg thread counts: 1.2/1.4/1.4/1.2
Matrix Compiler1:       9 opcodes  0.0/[0.0]/0.1
Matrix Compiler2: off  [0.0]/0.1/0.1

