Circuit: * D:\INGEÑERIA\Circuitos Electronicos II\simulaciones\(labo2) ej10tp2.asc

Direct Newton iteration failed to find .op point.  (Use ".option noopiter" to skip.)
Starting Gmin stepping
Gmin = 10
Gmin = 1.07374
Gmin = 0.115292
Gmin = 0.0123794
Gmin = 0.00132923
Gmin = 0.000142725
Gmin = 1.5325e-05
Gmin = 1.6455e-06
Gmin = 1.76685e-07
Gmin = 1.89714e-08
Gmin = 2.03704e-09
Gmin = 2.18725e-10
Gmin = 2.34854e-11
Gmin = 2.52173e-12
Gmin = 2.70769e-13
Gmin = 0
Gmin stepping succeeded in finding the operating point.

Ignoring empty pin current: Ix(u1:vc+)
Ignoring empty pin current: Ix(u1:vc-)
Ignoring empty pin current: Ix(u1:vout+)
Ignoring empty pin current: Ix(u1:vout-)
Ignoring empty pin current: Ix(u2:a)
Ignoring empty pin current: Ix(u2:c)
Ignoring empty pin current: Ix(u1:vc+)
Ignoring empty pin current: Ix(u1:vc-)
Ignoring empty pin current: Ix(u1:vout+)
Ignoring empty pin current: Ix(u1:vout-)
Ignoring empty pin current: Ix(u2:a)
Ignoring empty pin current: Ix(u2:c)

Date: Thu Sep 19 15:17:00 2024
Total elapsed time: 0.255 seconds.

tnom = 27
temp = 27
method = modified trap
totiter = 5862
traniter = 5358
tranpoints = 2049
accept = 1741
rejected = 308
matrix size = 54
fillins = 40
solver = Normal
Avg thread counts: 1.1/1.2/1.2/1.1
Matrix Compiler1: 6.70 KB object code size  1.1/1.1/[0.3]
Matrix Compiler2: 5.66 KB object code size  0.5/0.6/[0.4]

