Circuit: * D:\INGEÑERIA\Circuitos Electronicos II\simulaciones\(labo2) ej10tp2.asc

WARNING: Node NC_01 is floating.

WARNING: Less than two connections to node nc_01.  This node is used by c1.
Direct Newton iteration failed to find .op point.  (Use ".option noopiter" to skip.)
Starting Gmin stepping
Gmin = 10
Gmin = 1.07374
vernier = 0.5
vernier = 0.25
vernier = 0.125
vernier = 0.0625
vernier = 0.03125
vernier = 0.015625
Gmin = 1.01058
vernier = 0.0078125
vernier = 0.00390625
vernier = 0.00195312
vernier = 0.000976562
Gmin = 1.00078
vernier = 0.000488281
Gmin = 0
Gmin stepping succeeded in finding the operating point.

Changing Tseed to 9.76562e-10
Heightened Def Con from 1.75751e-05 to 1.75761e-05
Heightened Def Con from 1.77627e-05 to 1.77628e-05
Heightened Def Con from 1.88623e-05 to 1.88633e-05
Heightened Def Con from 1.89118e-05 to 1.89128e-05
Heightened Def Con from 0.000175329 to 0.000175331
Heightened Def Con from 0.000175332 to 0.000175333
Heightened Def Con from 0.000175335 to 0.000175336
Heightened Def Con from 0.000654621 to 0.000654622
Heightened Def Con from 0.000654665 to 0.000654666
Heightened Def Con from 0.000654697 to 0.000654698
Heightened Def Con from 0.000654698 to 0.000654699
Heightened Def Con from 0.000654736 to 0.000654737
Heightened Def Con from 0.00065474 to 0.000654741
Heightened Def Con from 0.000654762 to 0.000654763
Heightened Def Con from 0.00065479 to 0.000654792
Heightened Def Con from 0.000654806 to 0.000654806
Heightened Def Con from 0.000654806 to 0.000654808
Heightened Def Con from 0.000654808 to 0.000654808
Heightened Def Con from 0.000654808 to 0.000654808
Heightened Def Con from 0.00065481 to 0.000654811
Heightened Def Con from 0.000654829 to 0.00065483
Heightened Def Con from 0.000660927 to 0.000660928
Heightened Def Con from 0.000660935 to 0.000660936
Heightened Def Con from 0.000660936 to 0.000660937
Heightened Def Con from 0.000660937 to 0.000660937
Heightened Def Con from 0.000660938 to 0.00066094
Heightened Def Con from 0.000660986 to 0.000660987
Heightened Def Con from 0.000661001 to 0.000661002
Heightened Def Con from 0.000661008 to 0.000661008
Heightened Def Con from 0.000661008 to 0.000661008
Heightened Def Con from 0.000661008 to 0.000661008
Heightened Def Con from 0.000661008 to 0.000661008
Heightened Def Con from 0.000661008 to 0.000661008
Heightened Def Con from 0.000661008 to 0.000661009
Heightened Def Con from 0.00066101 to 0.000661011
Heightened Def Con from 0.000661013 to 0.000661014
Heightened Def Con from 0.00066218 to 0.000662181
Heightened Def Con from 0.000662288 to 0.000662289
Heightened Def Con from 0.000662293 to 0.000662294
Heightened Def Con from 0.000662363 to 0.000662363
Heightened Def Con from 0.000662363 to 0.000662363
Heightened Def Con from 0.000662363 to 0.000662364
Heightened Def Con from 0.000662722 to 0.000662723
Heightened Def Con from 0.000667009 to 0.00066701
Heightened Def Con from 0.000667016 to 0.000667017
Heightened Def Con from 0.000667021 to 0.000667021
Heightened Def Con from 0.000667021 to 0.000667021
Heightened Def Con from 0.000667021 to 0.000667022
Heightened Def Con from 0.000667024 to 0.000667024
Heightened Def Con from 0.000667024 to 0.000667025
Heightened Def Con from 0.000667025 to 0.000667025
Heightened Def Con from 0.000667025 to 0.000667026
Heightened Def Con from 0.000667048 to 0.000667049
Heightened Def Con from 0.000667056 to 0.000667058
Heightened Def Con from 0.000667062 to 0.000667062
Heightened Def Con from 0.000667062 to 0.000667062
Heightened Def Con from 0.000667062 to 0.000667062
Heightened Def Con from 0.000667063 to 0.000667063
Heightened Def Con from 0.000667063 to 0.000667063
Heightened Def Con from 0.000667063 to 0.000667064
Heightened Def Con from 0.000667087 to 0.000667088
Heightened Def Con from 0.00066709 to 0.00066709
Heightened Def Con from 0.00066709 to 0.00066709
Heightened Def Con from 0.00066709 to 0.00066709
Heightened Def Con from 0.00066709 to 0.000667091
Heightened Def Con from 0.00066717 to 0.00066717
Heightened Def Con from 0.000667348 to 0.000667349
Heightened Def Con from 0.000667367 to 0.000667368
Heightened Def Con from 0.000667623 to 0.000667624
Heightened Def Con from 0.000667685 to 0.000667686
Heightened Def Con from 0.000667688 to 0.000667689
Heightened Def Con from 0.000673098 to 0.0006731
Heightened Def Con from 0.000673104 to 0.000673105
Heightened Def Con from 0.000673108 to 0.000673108
Heightened Def Con from 0.000673109 to 0.00067311
Heightened Def Con from 0.000673115 to 0.000673115
Heightened Def Con from 0.000673115 to 0.000673115
Heightened Def Con from 0.000673116 to 0.000673118
Heightened Def Con from 0.000673362 to 0.000673364
Heightened Def Con from 0.000673364 to 0.000673364
Heightened Def Con from 0.000673364 to 0.000673365
Heightened Def Con from 0.00067338 to 0.00067338
Heightened Def Con from 0.000673389 to 0.00067339
Heightened Def Con from 0.00067339 to 0.00067339
Heightened Def Con from 0.000673391 to 0.000673391
Heightened Def Con from 0.000673394 to 0.000673395
Heightened Def Con from 0.000673397 to 0.000673397
Heightened Def Con from 0.000673398 to 0.000673399
Heightened Def Con from 0.000673401 to 0.000673401
Heightened Def Con from 0.000673401 to 0.000673402
Heightened Def Con from 0.000673403 to 0.000673403
Heightened Def Con from 0.000673403 to 0.000673404
Heightened Def Con from 0.000673414 to 0.000673415
Heightened Def Con from 0.000673421 to 0.000673421
Heightened Def Con from 0.000673421 to 0.000673421
Heightened Def Con from 0.000673421 to 0.000673422
Heightened Def Con from 0.000673452 to 0.000673453
Heightened Def Con from 0.000673456 to 0.000673457
Heightened Def Con from 0.000673461 to 0.000673461
Heightened Def Con from 0.000673462 to 0.000673463
Heightened Def Con from 0.000673471 to 0.000673472
Heightened Def Con from 0.000673472 to 0.000673473
Heightened Def Con from 0.000673477 to 0.000673477
Heightened Def Con from 0.000673477 to 0.000673477
Heightened Def Con from 0.000673477 to 0.000673478
Heightened Def Con from 0.00067348 to 0.000673481
Heightened Def Con from 0.000673481 to 0.000673481
Heightened Def Con from 0.000673481 to 0.000673482
Heightened Def Con from 0.000673482 to 0.000673483
Heightened Def Con from 0.000674973 to 0.000674973
Heightened Def Con from 0.000674973 to 0.000674975
Heightened Def Con from 0.000674975 to 0.000674976
Heightened Def Con from 0.000674976 to 0.000674977
Heightened Def Con from 0.000674977 to 0.000674979
Heightened Def Con from 0.000674993 to 0.000674993
Heightened Def Con from 0.000674993 to 0.000674994
Heightened Def Con from 0.000674995 to 0.000674995
Heightened Def Con from 0.000675034 to 0.000675035
Heightened Def Con from 0.000679441 to 0.000679442
Heightened Def Con from 0.000679442 to 0.000679443
Heightened Def Con from 0.000679443 to 0.000679443
Heightened Def Con from 0.000679443 to 0.000679443
Heightened Def Con from 0.000679461 to 0.000679462
Heightened Def Con from 0.000679509 to 0.000679509
Heightened Def Con from 0.00067951 to 0.000679511
Heightened Def Con from 0.000679513 to 0.000679515
Heightened Def Con from 0.000679544 to 0.000679545
Heightened Def Con from 0.000682208 to 0.00068221
Heightened Def Con from 0.000682221 to 0.000682222
Heightened Def Con from 0.000683153 to 0.000683153
Heightened Def Con from 0.000683153 to 0.000683153
Heightened Def Con from 0.000683154 to 0.000683154
Heightened Def Con from 0.000683235 to 0.000683235
Heightened Def Con from 0.000683235 to 0.000683236
Heightened Def Con from 0.000683236 to 0.000683237
Heightened Def Con from 0.000683239 to 0.000683241
Heightened Def Con from 0.000683248 to 0.000683249
Heightened Def Con from 0.000683256 to 0.000683257
Heightened Def Con from 0.000683265 to 0.000683267
Heightened Def Con from 0.000683275 to 0.000683275
Heightened Def Con from 0.000683275 to 0.000683276
Heightened Def Con from 0.000683279 to 0.00068328
Heightened Def Con from 0.000683302 to 0.000683302
Heightened Def Con from 0.000683302 to 0.000683303
Heightened Def Con from 0.000683303 to 0.000683304
Heightened Def Con from 0.000683435 to 0.000683436
Heightened Def Con from 0.000698299 to 0.000698299
Heightened Def Con from 0.000698303 to 0.000698304
Heightened Def Con from 0.000698305 to 0.000698305
Heightened Def Con from 0.000698307 to 0.000698307
Heightened Def Con from 0.000698309 to 0.000698309
Heightened Def Con from 0.000698309 to 0.000698311
Heightened Def Con from 0.000698313 to 0.000698314
Heightened Def Con from 0.000698326 to 0.000698327
Heightened Def Con from 0.000698329 to 0.00069833
Heightened Def Con from 0.000698332 to 0.000698333
Heightened Def Con from 0.000698337 to 0.000698337
Heightened Def Con from 0.000698337 to 0.000698338
Heightened Def Con from 0.000698338 to 0.000698339
Heightened Def Con from 0.00069834 to 0.00069834
Heightened Def Con from 0.00069834 to 0.00069834
Heightened Def Con from 0.00069834 to 0.000698341
Heightened Def Con from 0.000698342 to 0.000698342
Heightened Def Con from 0.000698342 to 0.000698344
Heightened Def Con from 0.00069836 to 0.000698362
Heightened Def Con from 0.000698362 to 0.000698363
Heightened Def Con from 0.000698364 to 0.000698364
Heightened Def Con from 0.000698364 to 0.000698365
Heightened Def Con from 0.000698366 to 0.000698367
Heightened Def Con from 0.000698367 to 0.000698368
Heightened Def Con from 0.000698375 to 0.000698375
Heightened Def Con from 0.000698375 to 0.000698376
Heightened Def Con from 0.000698377 to 0.000698378
Heightened Def Con from 0.000698385 to 0.000698386
Heightened Def Con from 0.000699051 to 0.000699052
Heightened Def Con from 0.000699058 to 0.000699058
Heightened Def Con from 0.000699058 to 0.00069906
Heightened Def Con from 0.000699096 to 0.000699098
Heightened Def Con from 0.000699134 to 0.000699134
Heightened Def Con from 0.000699134 to 0.000699135
Heightened Def Con from 0.000699136 to 0.000699137
Heightened Def Con from 0.000699137 to 0.000699137
Heightened Def Con from 0.000699138 to 0.000699139
Heightened Def Con from 0.000699146 to 0.000699146
Heightened Def Con from 0.000699146 to 0.000699147
Heightened Def Con from 0.000699147 to 0.000699147
Heightened Def Con from 0.000699148 to 0.000699148
Heightened Def Con from 0.000699148 to 0.00069915
Heightened Def Con from 0.000699156 to 0.000699157
Heightened Def Con from 0.000699157 to 0.000699158
Heightened Def Con from 0.000699195 to 0.000699196
Heightened Def Con from 0.000699205 to 0.000699206
Heightened Def Con from 0.000699444 to 0.000699444
Heightened Def Con from 0.000699444 to 0.000699444
Heightened Def Con from 0.000699445 to 0.000699445
Heightened Def Con from 0.000699446 to 0.000699447
Heightened Def Con from 0.000699449 to 0.00069945
Heightened Def Con from 0.000699452 to 0.000699452
Heightened Def Con from 0.000699452 to 0.000699452
Heightened Def Con from 0.000699452 to 0.000699452
Heightened Def Con from 0.000699452 to 0.000699453
Heightened Def Con from 0.000699461 to 0.000699461
Heightened Def Con from 0.000699461 to 0.000699461
Heightened Def Con from 0.000699461 to 0.000699461
Heightened Def Con from 0.000699461 to 0.000699462
Heightened Def Con from 0.000699463 to 0.000699463
Heightened Def Con from 0.000699463 to 0.000699464
Heightened Def Con from 0.000699471 to 0.000699472
Heightened Def Con from 0.000699603 to 0.000699605
Heightened Def Con from 0.000699605 to 0.000699606
Heightened Def Con from 0.000699606 to 0.000699607
Heightened Def Con from 0.000699615 to 0.000699615
Heightened Def Con from 0.000699615 to 0.000699616
Heightened Def Con from 0.000699616 to 0.000699617
Heightened Def Con from 0.000699618 to 0.000699619
Heightened Def Con from 0.000699647 to 0.000699648
Heightened Def Con from 0.000699654 to 0.000699655
Heightened Def Con from 0.000699655 to 0.000699656
Heightened Def Con from 0.000699656 to 0.000699656
Heightened Def Con from 0.000699656 to 0.000699656
Heightened Def Con from 0.000699656 to 0.000699657
Heightened Def Con from 0.000699671 to 0.000699671
Heightened Def Con from 0.000699703 to 0.000699703
Heightened Def Con from 0.000699712 to 0.000699714
Heightened Def Con from 0.000699717 to 0.000699717
Heightened Def Con from 0.000699717 to 0.000699718
Heightened Def Con from 0.000699718 to 0.000699719
Heightened Def Con from 0.000699721 to 0.000699723
Heightened Def Con from 0.000699757 to 0.000699759
Heightened Def Con from 0.000699759 to 0.00069976
Heightened Def Con from 0.000699781 to 0.000699781
Heightened Def Con from 0.000699781 to 0.000699782
Heightened Def Con from 0.000699827 to 0.000699828
Heightened Def Con from 0.000699828 to 0.000699829
Heightened Def Con from 0.000699829 to 0.000699829
Heightened Def Con from 0.000699829 to 0.00069983
Heightened Def Con from 0.00069983 to 0.000699831
Heightened Def Con from 0.000701759 to 0.00070176
Heightened Def Con from 0.000701762 to 0.000701764
Heightened Def Con from 0.000701766 to 0.000701766
Heightened Def Con from 0.000701767 to 0.000701768
Heightened Def Con from 0.000701833 to 0.000701834
Heightened Def Con from 0.000701853 to 0.000701854
Heightened Def Con from 0.000701854 to 0.000701854
Heightened Def Con from 0.000701854 to 0.000701854
Heightened Def Con from 0.000701859 to 0.000701861
Heightened Def Con from 0.000701863 to 0.000701863
Heightened Def Con from 0.000701863 to 0.000701863
Heightened Def Con from 0.000701863 to 0.000701863
Heightened Def Con from 0.000701866 to 0.000701867
Heightened Def Con from 0.000701871 to 0.000701872
Heightened Def Con from 0.000701876 to 0.000701877
Heightened Def Con from 0.00070206 to 0.000702061
Heightened Def Con from 0.000704192 to 0.000704194
Heightened Def Con from 0.000704196 to 0.000704197
Heightened Def Con from 0.000704201 to 0.000704202
Heightened Def Con from 0.000704202 to 0.000704203
Heightened Def Con from 0.000704228 to 0.000704229
Heightened Def Con from 0.000704229 to 0.00070423
Heightened Def Con from 0.000704231 to 0.000704232
Heightened Def Con from 0.000704234 to 0.000704235
Heightened Def Con from 0.000704279 to 0.00070428
Heightened Def Con from 0.000704296 to 0.000704297
Heightened Def Con from 0.000704361 to 0.000704361
Heightened Def Con from 0.000704361 to 0.000704362
Heightened Def Con from 0.000704363 to 0.000704364
Heightened Def Con from 0.000704365 to 0.000704366
Heightened Def Con from 0.00070437 to 0.000704371
Heightened Def Con from 0.000704371 to 0.000704372
Heightened Def Con from 0.000704378 to 0.000704378
Heightened Def Con from 0.000704378 to 0.000704379
Heightened Def Con from 0.000704396 to 0.000704396
Heightened Def Con from 0.000704396 to 0.000704396
Heightened Def Con from 0.000704397 to 0.000704398
Heightened Def Con from 0.000704399 to 0.000704401
Heightened Def Con from 0.000704405 to 0.000704406
Heightened Def Con from 0.000704408 to 0.000704409
Heightened Def Con from 0.000704417 to 0.000704417
Heightened Def Con from 0.000704417 to 0.000704418
Heightened Def Con from 0.000704421 to 0.000704421
Heightened Def Con from 0.000704421 to 0.000704423
Heightened Def Con from 0.000709224 to 0.000709224
Heightened Def Con from 0.000709224 to 0.000709225
Heightened Def Con from 0.000709286 to 0.000709287
Heightened Def Con from 0.000709328 to 0.000709328
Heightened Def Con from 0.000709329 to 0.00070933
Heightened Def Con from 0.000709965 to 0.000709965
Heightened Def Con from 0.000709966 to 0.000709967
Heightened Def Con from 0.000709971 to 0.000709971
Heightened Def Con from 0.000709971 to 0.000709971
Heightened Def Con from 0.000709971 to 0.000709971
Heightened Def Con from 0.000710077 to 0.000710078
Heightened Def Con from 0.000710078 to 0.000710078
Heightened Def Con from 0.000710104 to 0.000710105
Heightened Def Con from 0.000710107 to 0.000710109
Heightened Def Con from 0.000710119 to 0.00071012
Heightened Def Con from 0.000710121 to 0.000710121
Heightened Def Con from 0.000721968 to 0.000721969
Heightened Def Con from 0.000721969 to 0.00072197
Heightened Def Con from 0.00072197 to 0.00072197
Heightened Def Con from 0.00072197 to 0.000721971
Heightened Def Con from 0.000721974 to 0.000721975
Heightened Def Con from 0.000721996 to 0.000721996
Heightened Def Con from 0.000721996 to 0.000721997
Heightened Def Con from 0.000722072 to 0.000722072
Heightened Def Con from 0.000722073 to 0.000722073
Heightened Def Con from 0.000722073 to 0.000722073
Heightened Def Con from 0.000722073 to 0.000722074
Heightened Def Con from 0.000722139 to 0.00072214
Heightened Def Con from 0.00072214 to 0.000722141
Heightened Def Con from 0.000722143 to 0.000722144
Heightened Def Con from 0.000722144 to 0.000722145
Heightened Def Con from 0.000722163 to 0.000722163
Heightened Def Con from 0.000722163 to 0.000722164
Heightened Def Con from 0.000722164 to 0.000722164
Heightened Def Con from 0.000722164 to 0.000722164
Heightened Def Con from 0.000722165 to 0.000722166
Heightened Def Con from 0.000722166 to 0.000722166
Heightened Def Con from 0.000722166 to 0.000722166
Heightened Def Con from 0.000722166 to 0.000722166
Heightened Def Con from 0.000722166 to 0.000722166
Heightened Def Con from 0.000722166 to 0.000722167
Heightened Def Con from 0.000722179 to 0.000722179
Heightened Def Con from 0.000722211 to 0.000722212
Heightened Def Con from 0.000722227 to 0.000722228
Heightened Def Con from 0.000722235 to 0.000722236
Heightened Def Con from 0.000722238 to 0.00072224
Heightened Def Con from 0.00072224 to 0.000722241
Heightened Def Con from 0.000722864 to 0.000722865
Heightened Def Con from 0.000722871 to 0.000722872
Heightened Def Con from 0.000722875 to 0.000722875
Heightened Def Con from 0.000722893 to 0.000722894
Heightened Def Con from 0.000722894 to 0.000722895
Heightened Def Con from 0.000722899 to 0.0007229
Heightened Def Con from 0.000722935 to 0.000722937
Heightened Def Con from 0.000722951 to 0.000722951
Heightened Def Con from 0.000722951 to 0.000722953
Heightened Def Con from 0.000722957 to 0.000722957
Heightened Def Con from 0.000722957 to 0.000722957
Heightened Def Con from 0.000722991 to 0.000722992
Heightened Def Con from 0.000722998 to 0.000723
Heightened Def Con from 0.00072504 to 0.000725041
Heightened Def Con from 0.000725057 to 0.000725058
Heightened Def Con from 0.000725064 to 0.000725065
Heightened Def Con from 0.000725066 to 0.000725067
Heightened Def Con from 0.00072507 to 0.00072507
Heightened Def Con from 0.000725071 to 0.000725072
Heightened Def Con from 0.000725077 to 0.000725078
Heightened Def Con from 0.000725079 to 0.000725079
Heightened Def Con from 0.00072508 to 0.000725081
Heightened Def Con from 0.000727312 to 0.000727312
Heightened Def Con from 0.000727312 to 0.000727312
Heightened Def Con from 0.000727312 to 0.000727314
Heightened Def Con from 0.000727314 to 0.000727314
Heightened Def Con from 0.000727314 to 0.000727315
Heightened Def Con from 0.000727441 to 0.000727442
Heightened Def Con from 0.000727442 to 0.000727443
Heightened Def Con from 0.000727694 to 0.000727695
Heightened Def Con from 0.000727695 to 0.000727696
Heightened Def Con from 0.000727696 to 0.000727697
Heightened Def Con from 0.000727697 to 0.000727698
Heightened Def Con from 0.000727712 to 0.000727714
Heightened Def Con from 0.000728921 to 0.000728922
Heightened Def Con from 0.000728923 to 0.000728923
Heightened Def Con from 0.000729859 to 0.000729859
Heightened Def Con from 0.000729864 to 0.000729865
Heightened Def Con from 0.000729878 to 0.000729879
Heightened Def Con from 0.000729943 to 0.000729945
Heightened Def Con from 0.00072995 to 0.000729951
Heightened Def Con from 0.000729959 to 0.00072996
Heightened Def Con from 0.000729964 to 0.000729965
Heightened Def Con from 0.000729978 to 0.000729978
Heightened Def Con from 0.000729978 to 0.000729979
Heightened Def Con from 0.000729982 to 0.000729983
Heightened Def Con from 0.000729983 to 0.000729984
Heightened Def Con from 0.00072999 to 0.00072999
Heightened Def Con from 0.000730158 to 0.000730159
Heightened Def Con from 0.00073016 to 0.000730161
Heightened Def Con from 0.000730161 to 0.000730161
Heightened Def Con from 0.000730161 to 0.000730161
Heightened Def Con from 0.000730161 to 0.000730162
Heightened Def Con from 0.000730172 to 0.000730173
Heightened Def Con from 0.000730178 to 0.000730179
Heightened Def Con from 0.000730181 to 0.000730182
Heightened Def Con from 0.000730187 to 0.000730187
Heightened Def Con from 0.000730187 to 0.000730188
Heightened Def Con from 0.000730189 to 0.00073019
Heightened Def Con from 0.000730191 to 0.000730191
Heightened Def Con from 0.000730191 to 0.000730191
Heightened Def Con from 0.000730191 to 0.000730191
Heightened Def Con from 0.000730191 to 0.000730191
Heightened Def Con from 0.000730191 to 0.000730192
Heightened Def Con from 0.000730195 to 0.000730195
Heightened Def Con from 0.000730195 to 0.000730197
Heightened Def Con from 0.000730204 to 0.000730204
Heightened Def Con from 0.000730204 to 0.000730205
Heightened Def Con from 0.000730207 to 0.000730207
Heightened Def Con from 0.000730207 to 0.000730208
Heightened Def Con from 0.00073021 to 0.00073021
Heightened Def Con from 0.00073021 to 0.000730211
Heightened Def Con from 0.000730212 to 0.000730213
Heightened Def Con from 0.000730215 to 0.000730216
Heightened Def Con from 0.000730222 to 0.000730223
Heightened Def Con from 0.000730223 to 0.000730223
Heightened Def Con from 0.000730261 to 0.000730262
Heightened Def Con from 0.000730262 to 0.000730264
Heightened Def Con from 0.000730278 to 0.000730279
Heightened Def Con from 0.000730419 to 0.00073042
Heightened Def Con from 0.000730421 to 0.000730421
Heightened Def Con from 0.000730422 to 0.000730422
Heightened Def Con from 0.000730426 to 0.000730426
Heightened Def Con from 0.000730428 to 0.000730429
Heightened Def Con from 0.000730434 to 0.000730435
Heightened Def Con from 0.000730436 to 0.000730437
Heightened Def Con from 0.000730446 to 0.000730447
Heightened Def Con from 0.000730449 to 0.000730451
Heightened Def Con from 0.000730462 to 0.000730463
Heightened Def Con from 0.000730499 to 0.0007305
Heightened Def Con from 0.000730506 to 0.000730507
Heightened Def Con from 0.000730518 to 0.000730519
Heightened Def Con from 0.000730592 to 0.000730592
Heightened Def Con from 0.000730592 to 0.000730593
Heightened Def Con from 0.000730781 to 0.000730782
Heightened Def Con from 0.000730784 to 0.000730785
Heightened Def Con from 0.000730936 to 0.000730937
Heightened Def Con from 0.000730937 to 0.000730938
Heightened Def Con from 0.00073094 to 0.00073094
Heightened Def Con from 0.00073094 to 0.000730941
Heightened Def Con from 0.000730943 to 0.000730944
Heightened Def Con from 0.000731007 to 0.000731007
Heightened Def Con from 0.000731007 to 0.000731008
Heightened Def Con from 0.00073101 to 0.000731011
Heightened Def Con from 0.00073102 to 0.00073102
Heightened Def Con from 0.00073102 to 0.000731021
Heightened Def Con from 0.000731031 to 0.000731032
Heightened Def Con from 0.000731032 to 0.000731033
Heightened Def Con from 0.000731124 to 0.000731125
Heightened Def Con from 0.000731125 to 0.000731126
Heightened Def Con from 0.000731126 to 0.000731126
Heightened Def Con from 0.000731128 to 0.000731129
Heightened Def Con from 0.000731129 to 0.000731131
Heightened Def Con from 0.000731132 to 0.000731132
Heightened Def Con from 0.000731132 to 0.000731133
Heightened Def Con from 0.000731134 to 0.000731134
Heightened Def Con from 0.000731134 to 0.000731136
Heightened Def Con from 0.000731142 to 0.000731143
Heightened Def Con from 0.000731269 to 0.00073127
Heightened Def Con from 0.000731279 to 0.000731279
Heightened Def Con from 0.000731279 to 0.00073128
Heightened Def Con from 0.00073128 to 0.000731281
Heightened Def Con from 0.000731329 to 0.000731329
Heightened Def Con from 0.000731329 to 0.00073133
Heightened Def Con from 0.000731331 to 0.000731332
Heightened Def Con from 0.000731332 to 0.000731333
Heightened Def Con from 0.000731624 to 0.000731624
Heightened Def Con from 0.000731627 to 0.000731628
Heightened Def Con from 0.00073174 to 0.000731741
Heightened Def Con from 0.000731741 to 0.000731742
Heightened Def Con from 0.000731744 to 0.000731744
Heightened Def Con from 0.000731746 to 0.000731747
Heightened Def Con from 0.000731764 to 0.000731765
Heightened Def Con from 0.000731765 to 0.000731765
Heightened Def Con from 0.000731765 to 0.000731765
Heightened Def Con from 0.000731766 to 0.000731767
Heightened Def Con from 0.000731777 to 0.000731778
Heightened Def Con from 0.00073178 to 0.00073178
Heightened Def Con from 0.000731781 to 0.000731781
Heightened Def Con from 0.000731782 to 0.000731782
Heightened Def Con from 0.000731783 to 0.000731784
Heightened Def Con from 0.000731787 to 0.000731787
Heightened Def Con from 0.000731787 to 0.000731787
Heightened Def Con from 0.000731787 to 0.000731788
Heightened Def Con from 0.000731794 to 0.000731795
Heightened Def Con from 0.000732499 to 0.0007325
Heightened Def Con from 0.000732508 to 0.000732509
Heightened Def Con from 0.000732539 to 0.000732539
Heightened Def Con from 0.000732539 to 0.00073254
Heightened Def Con from 0.000732542 to 0.000732543
Heightened Def Con from 0.000732718 to 0.000732719
Heightened Def Con from 0.000732721 to 0.000732722
Heightened Def Con from 0.000732722 to 0.000732722
Heightened Def Con from 0.000732733 to 0.000732733
Heightened Def Con from 0.000732733 to 0.000732735
Heightened Def Con from 0.000732736 to 0.000732737
Heightened Def Con from 0.000732761 to 0.000732762
Heightened Def Con from 0.000732764 to 0.000732764
Heightened Def Con from 0.000732765 to 0.000732767
Heightened Def Con from 0.000732773 to 0.000732774
Heightened Def Con from 0.000732774 to 0.000732775
Heightened Def Con from 0.000732776 to 0.000732776
Heightened Def Con from 0.000732776 to 0.000732777
Heightened Def Con from 0.000732784 to 0.000732785
Heightened Def Con from 0.000732793 to 0.000732794
Heightened Def Con from 0.000732804 to 0.000732805
Heightened Def Con from 0.000732807 to 0.000732808
Heightened Def Con from 0.000732821 to 0.000732821
Heightened Def Con from 0.000732821 to 0.000732822
Heightened Def Con from 0.000732869 to 0.00073287
Heightened Def Con from 0.000732879 to 0.000732879
Heightened Def Con from 0.000732879 to 0.000732879
Heightened Def Con from 0.00073288 to 0.00073288
Heightened Def Con from 0.000732881 to 0.000732882
Heightened Def Con from 0.000732896 to 0.000732897
Heightened Def Con from 0.000732899 to 0.0007329
Heightened Def Con from 0.000733453 to 0.000733454
Heightened Def Con from 0.000733456 to 0.000733457
Heightened Def Con from 0.000733463 to 0.000733464
Heightened Def Con from 0.000733549 to 0.000733549
Heightened Def Con from 0.000733549 to 0.00073355
Heightened Def Con from 0.000733557 to 0.000733558
Heightened Def Con from 0.00073356 to 0.000733561
Heightened Def Con from 0.000733847 to 0.000733848
Heightened Def Con from 0.000733848 to 0.000733849
Heightened Def Con from 0.000733855 to 0.000733856
Heightened Def Con from 0.000733857 to 0.000733858
Heightened Def Con from 0.000733879 to 0.00073388
Heightened Def Con from 0.00073388 to 0.00073388
Heightened Def Con from 0.000733881 to 0.000733881
Heightened Def Con from 0.000733881 to 0.000733882
Heightened Def Con from 0.000733882 to 0.000733883
Heightened Def Con from 0.000733883 to 0.000733884
Heightened Def Con from 0.000733884 to 0.000733885
Heightened Def Con from 0.000733885 to 0.000733886
Heightened Def Con from 0.000733907 to 0.000733908
Heightened Def Con from 0.000733908 to 0.000733908
Heightened Def Con from 0.000733908 to 0.000733908
Heightened Def Con from 0.000733908 to 0.000733909
Heightened Def Con from 0.000733915 to 0.000733916
Heightened Def Con from 0.000733916 to 0.000733916
Heightened Def Con from 0.000733917 to 0.000733917
Heightened Def Con from 0.000733917 to 0.000733918
Heightened Def Con from 0.000733919 to 0.000733919
Heightened Def Con from 0.000733923 to 0.000733923
Heightened Def Con from 0.000733924 to 0.000733925
Heightened Def Con from 0.000733927 to 0.000733927
Heightened Def Con from 0.000733932 to 0.000733934
Heightened Def Con from 0.000733936 to 0.000733937
Heightened Def Con from 0.000733999 to 0.000734001
Heightened Def Con from 0.000734002 to 0.000734003
Heightened Def Con from 0.000734026 to 0.000734027
Heightened Def Con from 0.000734028 to 0.000734029
Heightened Def Con from 0.000734029 to 0.000734031
Heightened Def Con from 0.000734046 to 0.000734047
Heightened Def Con from 0.000735206 to 0.000735207
Heightened Def Con from 0.000735208 to 0.000735209
Heightened Def Con from 0.000735209 to 0.00073521
Heightened Def Con from 0.000735214 to 0.000735216
Heightened Def Con from 0.00073523 to 0.000735231
Heightened Def Con from 0.000735234 to 0.000735234
Heightened Def Con from 0.000735234 to 0.000735234
Heightened Def Con from 0.000735234 to 0.000735234
Heightened Def Con from 0.000735235 to 0.000735235
Heightened Def Con from 0.000735235 to 0.000735235
Heightened Def Con from 0.000735235 to 0.000735236
Heightened Def Con from 0.000735237 to 0.000735238
Heightened Def Con from 0.000735255 to 0.000735256
Heightened Def Con from 0.000735502 to 0.000735502
Heightened Def Con from 0.000735502 to 0.000735503
Heightened Def Con from 0.000740496 to 0.000740497
Heightened Def Con from 0.000740504 to 0.000740504
Heightened Def Con from 0.000740506 to 0.000740506
Heightened Def Con from 0.000740506 to 0.000740507
Heightened Def Con from 0.00074061 to 0.000740612
Heightened Def Con from 0.000740658 to 0.000740659
Heightened Def Con from 0.000740666 to 0.000740667
Heightened Def Con from 0.000740684 to 0.000740685
Heightened Def Con from 0.000740688 to 0.000740689
Heightened Def Con from 0.000740693 to 0.000740694
Heightened Def Con from 0.000740701 to 0.000740702
Heightened Def Con from 0.000740705 to 0.000740706
Heightened Def Con from 0.000740712 to 0.000740713
Heightened Def Con from 0.000740716 to 0.000740718
Heightened Def Con from 0.000740857 to 0.000740858
Heightened Def Con from 0.000741063 to 0.000741063
Heightened Def Con from 0.000741063 to 0.000741064
Heightened Def Con from 0.000741069 to 0.000741069
Heightened Def Con from 0.000741147 to 0.000741147
Heightened Def Con from 0.000741147 to 0.000741148
Heightened Def Con from 0.000741154 to 0.000741154
Heightened Def Con from 0.000741154 to 0.000741155
Heightened Def Con from 0.000741158 to 0.000741159
Heightened Def Con from 0.000741178 to 0.000741178
Heightened Def Con from 0.000741179 to 0.00074118
Heightened Def Con from 0.000741183 to 0.000741184
Heightened Def Con from 0.00074119 to 0.00074119
Heightened Def Con from 0.00074119 to 0.000741191
Heightened Def Con from 0.000741193 to 0.000741194
Heightened Def Con from 0.000741196 to 0.000741196
Heightened Def Con from 0.000741196 to 0.000741196
Heightened Def Con from 0.000741196 to 0.000741197
Heightened Def Con from 0.000741206 to 0.000741207
Heightened Def Con from 0.000741207 to 0.000741207
Heightened Def Con from 0.000741214 to 0.000741216
Heightened Def Con from 0.000741216 to 0.000741218
Heightened Def Con from 0.000741218 to 0.000741218
Heightened Def Con from 0.000741218 to 0.000741218
Heightened Def Con from 0.000741219 to 0.000741219
Heightened Def Con from 0.00074125 to 0.000741251
Heightened Def Con from 0.000741251 to 0.000741252
Heightened Def Con from 0.000741252 to 0.000741253
Heightened Def Con from 0.000741253 to 0.000741255
Heightened Def Con from 0.000741332 to 0.000741333
Heightened Def Con from 0.000741334 to 0.000741334
Heightened Def Con from 0.000741334 to 0.000741336
Heightened Def Con from 0.000741338 to 0.000741339
Heightened Def Con from 0.000741339 to 0.000741341
Heightened Def Con from 0.000741342 to 0.000741342
Heightened Def Con from 0.000741342 to 0.000741342
Heightened Def Con from 0.000741343 to 0.000741343
Heightened Def Con from 0.000741343 to 0.000741344
Heightened Def Con from 0.000741344 to 0.000741345
Heightened Def Con from 0.000741346 to 0.000741347
Heightened Def Con from 0.000741347 to 0.000741348
Heightened Def Con from 0.000741348 to 0.000741348
Heightened Def Con from 0.000741348 to 0.000741349
Heightened Def Con from 0.000741351 to 0.000741351
Heightened Def Con from 0.000741352 to 0.000741352
Heightened Def Con from 0.000741352 to 0.000741353
Heightened Def Con from 0.000741355 to 0.000741356
Heightened Def Con from 0.000741356 to 0.000741357
Heightened Def Con from 0.00074136 to 0.000741361
Heightened Def Con from 0.000741363 to 0.000741365
Heightened Def Con from 0.000741374 to 0.000741375
Heightened Def Con from 0.000741376 to 0.000741376
Heightened Def Con from 0.000741376 to 0.000741377
Heightened Def Con from 0.000741379 to 0.000741379
Heightened Def Con from 0.00074138 to 0.000741381
Heightened Def Con from 0.000741381 to 0.000741382
Heightened Def Con from 0.000741399 to 0.0007414
Heightened Def Con from 0.000741404 to 0.000741406
Heightened Def Con from 0.000741406 to 0.000741407
Heightened Def Con from 0.000741409 to 0.000741409
Heightened Def Con from 0.00074141 to 0.00074141
Heightened Def Con from 0.000741451 to 0.000741452
Heightened Def Con from 0.000741536 to 0.000741536
Heightened Def Con from 0.000741537 to 0.000741537
Heightened Def Con from 0.000741537 to 0.000741537
Heightened Def Con from 0.000741537 to 0.000741539
Heightened Def Con from 0.000742213 to 0.000742214
Heightened Def Con from 0.000742223 to 0.000742224
Heightened Def Con from 0.000742224 to 0.000742224
Heightened Def Con from 0.000742225 to 0.000742227
Heightened Def Con from 0.000742228 to 0.000742229
Heightened Def Con from 0.000742231 to 0.000742231
Heightened Def Con from 0.000742231 to 0.000742232
Heightened Def Con from 0.000742236 to 0.000742236
Heightened Def Con from 0.000742239 to 0.00074224
Heightened Def Con from 0.000742247 to 0.000742248
Heightened Def Con from 0.000742268 to 0.000742269
Heightened Def Con from 0.000742271 to 0.000742273
Heightened Def Con from 0.000742273 to 0.000742274
Heightened Def Con from 0.000742434 to 0.000742435
Heightened Def Con from 0.000742586 to 0.000742586
Heightened Def Con from 0.000742587 to 0.000742587
Heightened Def Con from 0.000742587 to 0.000742588
Heightened Def Con from 0.000742604 to 0.000742605
Heightened Def Con from 0.000742606 to 0.000742606
Heightened Def Con from 0.000742606 to 0.000742607
Heightened Def Con from 0.000742615 to 0.000742615
Heightened Def Con from 0.000742616 to 0.000742617
Heightened Def Con from 0.000742619 to 0.000742621
Heightened Def Con from 0.000742622 to 0.000742623
Heightened Def Con from 0.000742623 to 0.000742624
Heightened Def Con from 0.000743711 to 0.000743711
Heightened Def Con from 0.000743799 to 0.000743801
Heightened Def Con from 0.000743802 to 0.000743802
Heightened Def Con from 0.000743802 to 0.000743803
Heightened Def Con from 0.000743803 to 0.000743805
Heightened Def Con from 0.000744146 to 0.000744147
Heightened Def Con from 0.000744147 to 0.000744148
Heightened Def Con from 0.00074415 to 0.000744152
Heightened Def Con from 0.000744152 to 0.000744152
Heightened Def Con from 0.000744152 to 0.000744153
Heightened Def Con from 0.000744154 to 0.000744155
Heightened Def Con from 0.000744156 to 0.000744157
Heightened Def Con from 0.000744157 to 0.000744158
Heightened Def Con from 0.000744257 to 0.000744258
Heightened Def Con from 0.000744267 to 0.000744267
Heightened Def Con from 0.000744267 to 0.000744268
Heightened Def Con from 0.000744274 to 0.000744276
Heightened Def Con from 0.000744872 to 0.000744874
Heightened Def Con from 0.000744874 to 0.000744875
Heightened Def Con from 0.000744886 to 0.000744888
Heightened Def Con from 0.000744888 to 0.000744889
Heightened Def Con from 0.000745106 to 0.000745107
Heightened Def Con from 0.000745135 to 0.000745136
Heightened Def Con from 0.000745142 to 0.000745144
Heightened Def Con from 0.00074515 to 0.000745151
Heightened Def Con from 0.000745153 to 0.000745154
Heightened Def Con from 0.000745154 to 0.000745155
Heightened Def Con from 0.000745155 to 0.000745155
Heightened Def Con from 0.000745155 to 0.000745155
Heightened Def Con from 0.000745155 to 0.000745156
Heightened Def Con from 0.000745157 to 0.000745158
Heightened Def Con from 0.000745414 to 0.000745414
Heightened Def Con from 0.000745421 to 0.000745422
Heightened Def Con from 0.000745422 to 0.000745424
Heightened Def Con from 0.000745428 to 0.000745428
Heightened Def Con from 0.000745428 to 0.000745429
Heightened Def Con from 0.000745532 to 0.000745532
Heightened Def Con from 0.000745532 to 0.000745532
Heightened Def Con from 0.000745532 to 0.000745533
Heightened Def Con from 0.000745543 to 0.000745543
Heightened Def Con from 0.000745543 to 0.000745544
Heightened Def Con from 0.000745544 to 0.000745545
Heightened Def Con from 0.000745583 to 0.000745584
Heightened Def Con from 0.000745584 to 0.000745586
Heightened Def Con from 0.00074576 to 0.00074576
Heightened Def Con from 0.000745762 to 0.000745763
Heightened Def Con from 0.000745778 to 0.000745779
Heightened Def Con from 0.000745785 to 0.000745785
Heightened Def Con from 0.000745785 to 0.000745786
Heightened Def Con from 0.000745829 to 0.00074583
Heightened Def Con from 0.000745834 to 0.000745835
Heightened Def Con from 0.000745835 to 0.000745835
Heightened Def Con from 0.000745835 to 0.000745836
Heightened Def Con from 0.000745838 to 0.00074584
Heightened Def Con from 0.000745843 to 0.000745844
Heightened Def Con from 0.000745844 to 0.000745845
Heightened Def Con from 0.000746104 to 0.000746105
Heightened Def Con from 0.000746111 to 0.000746112
Heightened Def Con from 0.00074614 to 0.000746142
Heightened Def Con from 0.000746151 to 0.000746152
Heightened Def Con from 0.000746326 to 0.000746327
Heightened Def Con from 0.000746328 to 0.000746329
Heightened Def Con from 0.000746329 to 0.000746329
Heightened Def Con from 0.00074633 to 0.000746332
Heightened Def Con from 0.000746348 to 0.000746349
Heightened Def Con from 0.00074635 to 0.00074635
Heightened Def Con from 0.00074635 to 0.00074635
Heightened Def Con from 0.000746351 to 0.000746351
Heightened Def Con from 0.000746351 to 0.000746352
Heightened Def Con from 0.000746367 to 0.000746367
Heightened Def Con from 0.000746367 to 0.000746369
Heightened Def Con from 0.000746376 to 0.000746377
Heightened Def Con from 0.000746379 to 0.000746379
Heightened Def Con from 0.000746379 to 0.00074638
Heightened Def Con from 0.000746382 to 0.000746383
Heightened Def Con from 0.000746385 to 0.000746385
Heightened Def Con from 0.000746386 to 0.000746388
Heightened Def Con from 0.000746438 to 0.000746438
Heightened Def Con from 0.000746439 to 0.00074644
Heightened Def Con from 0.000746459 to 0.00074646
Heightened Def Con from 0.000746462 to 0.000746463
Heightened Def Con from 0.000746463 to 0.000746465
Heightened Def Con from 0.000746465 to 0.000746465
Heightened Def Con from 0.000746465 to 0.000746466
Heightened Def Con from 0.000746605 to 0.000746605
Heightened Def Con from 0.000746606 to 0.000746607
Heightened Def Con from 0.00074661 to 0.000746611
Heightened Def Con from 0.000746617 to 0.000746619
Heightened Def Con from 0.000746619 to 0.000746619
Heightened Def Con from 0.000746619 to 0.000746619
Heightened Def Con from 0.000746623 to 0.000746624
Heightened Def Con from 0.00074667 to 0.00074667
Heightened Def Con from 0.00074667 to 0.000746672
Heightened Def Con from 0.000746681 to 0.000746682
Heightened Def Con from 0.000746715 to 0.000746716
Heightened Def Con from 0.000746718 to 0.000746719
Heightened Def Con from 0.000746735 to 0.000746736
Heightened Def Con from 0.000746737 to 0.000746737
Heightened Def Con from 0.000746737 to 0.000746737
Heightened Def Con from 0.000746737 to 0.000746737
Heightened Def Con from 0.000746737 to 0.000746738
Heightened Def Con from 0.00074674 to 0.00074674
Heightened Def Con from 0.00074674 to 0.000746741
Heightened Def Con from 0.000749673 to 0.000749674
Heightened Def Con from 0.000749674 to 0.000749675
Heightened Def Con from 0.000749689 to 0.000749689
Heightened Def Con from 0.00074969 to 0.00074969
Heightened Def Con from 0.000749695 to 0.000749695
Heightened Def Con from 0.000749696 to 0.000749696
Heightened Def Con from 0.000749696 to 0.000749697
Heightened Def Con from 0.000749841 to 0.000749842
Heightened Def Con from 0.000749871 to 0.000749872
Heightened Def Con from 0.000749881 to 0.000749881
Heightened Def Con from 0.000749881 to 0.000749882
Heightened Def Con from 0.000749892 to 0.000749893
Heightened Def Con from 0.000749895 to 0.000749897
Heightened Def Con from 0.000749897 to 0.000749897
Heightened Def Con from 0.000749897 to 0.000749897
Heightened Def Con from 0.000749897 to 0.000749898
Heightened Def Con from 0.0007499 to 0.000749901
Heightened Def Con from 0.000749905 to 0.000749906
Heightened Def Con from 0.000749907 to 0.000749908
Heightened Def Con from 0.000749914 to 0.000749914
Heightened Def Con from 0.000749915 to 0.000749917
Heightened Def Con from 0.000749955 to 0.000749955
Heightened Def Con from 0.000749956 to 0.000749957
Heightened Def Con from 0.000749957 to 0.000749957
Heightened Def Con from 0.000749957 to 0.000749958
Heightened Def Con from 0.00075009 to 0.000750091
Heightened Def Con from 0.000750095 to 0.000750095
Heightened Def Con from 0.000750095 to 0.000750095
Heightened Def Con from 0.000750096 to 0.000750096
Heightened Def Con from 0.000750098 to 0.000750099
Heightened Def Con from 0.0007501 to 0.0007501
Heightened Def Con from 0.000750101 to 0.000750101
Heightened Def Con from 0.000750101 to 0.000750102
Heightened Def Con from 0.000750103 to 0.000750103
Heightened Def Con from 0.000750104 to 0.000750104
Heightened Def Con from 0.000750104 to 0.000750105
Heightened Def Con from 0.000750392 to 0.000750393
Heightened Def Con from 0.000750396 to 0.000750397
Heightened Def Con from 0.000750397 to 0.000750397
Heightened Def Con from 0.000750397 to 0.000750397
Heightened Def Con from 0.000750397 to 0.000750399
Heightened Def Con from 0.0007504 to 0.0007504
Heightened Def Con from 0.000750414 to 0.000750415
Heightened Def Con from 0.000750611 to 0.000750613
Heightened Def Con from 0.000750614 to 0.000750616
Heightened Def Con from 0.000750616 to 0.000750616
Heightened Def Con from 0.000750617 to 0.000750617
Heightened Def Con from 0.000750617 to 0.000750618
Heightened Def Con from 0.000750618 to 0.000750619
Heightened Def Con from 0.000750911 to 0.000750911
Heightened Def Con from 0.000750911 to 0.000750913
Heightened Def Con from 0.000750913 to 0.000750914
Heightened Def Con from 0.000750914 to 0.000750915
Heightened Def Con from 0.000750915 to 0.000750916
Heightened Def Con from 0.000751211 to 0.000751212
Heightened Def Con from 0.000751215 to 0.000751217
Heightened Def Con from 0.000751218 to 0.00075122
Heightened Def Con from 0.000752426 to 0.000752427
Heightened Def Con from 0.000752429 to 0.00075243
Heightened Def Con from 0.000752437 to 0.000752438
Heightened Def Con from 0.000752439 to 0.000752439
Heightened Def Con from 0.000752439 to 0.000752439
Heightened Def Con from 0.000752454 to 0.000752454
Heightened Def Con from 0.000752454 to 0.000752456
Heightened Def Con from 0.000753284 to 0.000753284
Heightened Def Con from 0.000753284 to 0.000753285
Heightened Def Con from 0.000753301 to 0.000753302
Heightened Def Con from 0.000753302 to 0.000753303
Heightened Def Con from 0.00075376 to 0.00075376
Heightened Def Con from 0.000753764 to 0.000753766
Heightened Def Con from 0.000753768 to 0.00075377
Heightened Def Con from 0.000753772 to 0.000753774
Heightened Def Con from 0.000754083 to 0.000754083
Heightened Def Con from 0.000754083 to 0.000754084
Heightened Def Con from 0.00075412 to 0.000754121
Heightened Def Con from 0.000754132 to 0.000754132
Heightened Def Con from 0.000754133 to 0.000754134
Heightened Def Con from 0.000754137 to 0.000754138
Heightened Def Con from 0.000758904 to 0.000758905
Heightened Def Con from 0.000761015 to 0.000761015
Heightened Def Con from 0.000761016 to 0.000761017
Heightened Def Con from 0.00076103 to 0.000761031
Heightened Def Con from 0.000761037 to 0.000761038
Heightened Def Con from 0.000761038 to 0.000761039
Heightened Def Con from 0.000761045 to 0.000761046
Heightened Def Con from 0.000761284 to 0.000761285
Heightened Def Con from 0.000761285 to 0.000761286
Heightened Def Con from 0.000761291 to 0.000761291
Heightened Def Con from 0.000761291 to 0.000761291
Heightened Def Con from 0.000761291 to 0.000761291
Heightened Def Con from 0.000761291 to 0.000761291
Heightened Def Con from 0.000761292 to 0.000761292
Heightened Def Con from 0.000761292 to 0.000761294
Heightened Def Con from 0.000761294 to 0.000761295
Heightened Def Con from 0.000761296 to 0.000761296
Heightened Def Con from 0.000761296 to 0.000761297
Heightened Def Con from 0.000761297 to 0.000761298
Heightened Def Con from 0.000761304 to 0.000761304
Heightened Def Con from 0.000761328 to 0.000761329
Heightened Def Con from 0.00076133 to 0.000761331
Heightened Def Con from 0.000761359 to 0.00076136
Heightened Def Con from 0.000766984 to 0.000766985
Heightened Def Con from 0.000766992 to 0.000766992
Heightened Def Con from 0.000766995 to 0.000766996
Heightened Def Con from 0.000766996 to 0.000766998
Heightened Def Con from 0.000766998 to 0.000767
Heightened Def Con from 0.000767 to 0.000767001
Heightened Def Con from 0.000767571 to 0.000767571
Heightened Def Con from 0.000767572 to 0.000767574
Heightened Def Con from 0.000767969 to 0.000767969
Heightened Def Con from 0.000767974 to 0.000767975
Heightened Def Con from 0.000767975 to 0.000767975
Heightened Def Con from 0.000767975 to 0.000767976
Heightened Def Con from 0.000767978 to 0.000767979
Heightened Def Con from 0.000767981 to 0.000767982
Heightened Def Con from 0.000767988 to 0.000767989
Heightened Def Con from 0.000768054 to 0.000768055
Heightened Def Con from 0.000768059 to 0.000768059
Heightened Def Con from 0.000768059 to 0.000768059
Heightened Def Con from 0.00076806 to 0.000768062
Heightened Def Con from 0.000768063 to 0.000768064
Heightened Def Con from 0.000768143 to 0.000768143
Heightened Def Con from 0.000768143 to 0.000768143
Heightened Def Con from 0.000768144 to 0.000768144
Heightened Def Con from 0.000816107 to 0.000816108
Heightened Def Con from 0.000816282 to 0.000816282
Heightened Def Con from 0.000816283 to 0.000816284
Heightened Def Con from 0.000816286 to 0.000816287
Heightened Def Con from 0.000816289 to 0.00081629
Heightened Def Con from 0.000816298 to 0.000816298
Heightened Def Con from 0.000816299 to 0.000816299
Heightened Def Con from 0.000816316 to 0.000816317
Heightened Def Con from 0.000816322 to 0.000816323
Heightened Def Con from 0.000816343 to 0.000816343
Heightened Def Con from 0.000816343 to 0.000816344
Heightened Def Con from 0.000816344 to 0.000816346
Heightened Def Con from 0.00081764 to 0.000817641
Heightened Def Con from 0.000817664 to 0.000817665
Heightened Def Con from 0.000817681 to 0.000817681
Heightened Def Con from 0.000817681 to 0.000817682
Heightened Def Con from 0.000817688 to 0.000817689
Heightened Def Con from 0.00081769 to 0.000817691
Heightened Def Con from 0.000817691 to 0.000817691
Heightened Def Con from 0.000817691 to 0.000817692
Heightened Def Con from 0.000817692 to 0.000817693
Heightened Def Con from 0.000817694 to 0.000817694
Heightened Def Con from 0.000817694 to 0.000817694
Heightened Def Con from 0.000817694 to 0.000817694
Heightened Def Con from 0.000817695 to 0.000817696
Heightened Def Con from 0.000817697 to 0.000817697
Heightened Def Con from 0.000817697 to 0.000817697
Heightened Def Con from 0.000817697 to 0.000817699
Heightened Def Con from 0.000817703 to 0.000817703
Heightened Def Con from 0.000817709 to 0.000817711
Heightened Def Con from 0.000817795 to 0.000817795
Heightened Def Con from 0.000817795 to 0.000817796
Heightened Def Con from 0.00081786 to 0.000817861
Heightened Def Con from 0.000817867 to 0.000817867
Heightened Def Con from 0.000817867 to 0.000817869
Heightened Def Con from 0.00081787 to 0.000817871
Heightened Def Con from 0.000817871 to 0.000817871
Heightened Def Con from 0.000817871 to 0.000817871
Heightened Def Con from 0.000817871 to 0.000817872
Heightened Def Con from 0.000817997 to 0.000817998
Heightened Def Con from 0.000818021 to 0.000818021
Heightened Def Con from 0.000818028 to 0.000818028
Heightened Def Con from 0.000818029 to 0.000818029
Heightened Def Con from 0.000818032 to 0.000818033
Heightened Def Con from 0.000818033 to 0.000818034
Heightened Def Con from 0.000818042 to 0.000818043
Heightened Def Con from 0.000818057 to 0.000818057
Heightened Def Con from 0.000818058 to 0.000818058
Heightened Def Con from 0.000818058 to 0.000818058
Heightened Def Con from 0.000818058 to 0.000818059
Heightened Def Con from 0.000818059 to 0.00081806
Heightened Def Con from 0.000818061 to 0.000818061
Heightened Def Con from 0.000818065 to 0.000818066
Heightened Def Con from 0.000818067 to 0.000818068
Heightened Def Con from 0.00081807 to 0.000818071
Heightened Def Con from 0.000818299 to 0.0008183
Heightened Def Con from 0.000818927 to 0.000818927
Heightened Def Con from 0.000818928 to 0.000818929
Heightened Def Con from 0.000818992 to 0.000818993
Heightened Def Con from 0.000819067 to 0.000819068
Heightened Def Con from 0.000819088 to 0.000819089
Heightened Def Con from 0.000819105 to 0.000819105
Heightened Def Con from 0.000819107 to 0.000819108
Heightened Def Con from 0.00081911 to 0.000819112
Heightened Def Con from 0.000819115 to 0.000819115
Heightened Def Con from 0.000819117 to 0.000819118
Heightened Def Con from 0.000819118 to 0.000819118
Heightened Def Con from 0.000819118 to 0.000819118
Heightened Def Con from 0.000819118 to 0.000819118
Heightened Def Con from 0.000819118 to 0.000819119
Heightened Def Con from 0.00081912 to 0.000819121
Heightened Def Con from 0.000819123 to 0.000819123
Heightened Def Con from 0.000819124 to 0.000819124
Heightened Def Con from 0.000819125 to 0.000819125
Heightened Def Con from 0.000819125 to 0.000819126
Heightened Def Con from 0.00081914 to 0.000819141
Heightened Def Con from 0.000819143 to 0.000819143
Heightened Def Con from 0.000819143 to 0.000819145
Heightened Def Con from 0.000819151 to 0.000819152
Heightened Def Con from 0.000819161 to 0.000819161
Heightened Def Con from 0.000819162 to 0.000819163
Heightened Def Con from 0.000819165 to 0.000819166
Heightened Def Con from 0.000819174 to 0.000819175
Heightened Def Con from 0.000819175 to 0.000819176
Heightened Def Con from 0.00081954 to 0.000819541
Heightened Def Con from 0.000819554 to 0.000819555
Heightened Def Con from 0.000819571 to 0.000819572
Heightened Def Con from 0.000819572 to 0.000819572
Heightened Def Con from 0.000819572 to 0.000819573
Heightened Def Con from 0.000819575 to 0.000819577
Heightened Def Con from 0.000819587 to 0.000819588
Heightened Def Con from 0.00081959 to 0.000819592
Heightened Def Con from 0.000819598 to 0.000819598
Heightened Def Con from 0.000819598 to 0.000819599
Heightened Def Con from 0.000819759 to 0.00081976
Heightened Def Con from 0.000820045 to 0.000820045
Heightened Def Con from 0.00082005 to 0.00082005
Heightened Def Con from 0.00082005 to 0.000820051
Heightened Def Con from 0.000820056 to 0.000820057
Heightened Def Con from 0.00082007 to 0.000820071
Heightened Def Con from 0.000820094 to 0.000820096
Heightened Def Con from 0.0008201 to 0.0008201
Heightened Def Con from 0.0008201 to 0.000820101
Heightened Def Con from 0.000820115 to 0.000820116
Heightened Def Con from 0.000820116 to 0.000820117
Heightened Def Con from 0.000820117 to 0.000820118
Heightened Def Con from 0.000820118 to 0.000820118
Heightened Def Con from 0.000820119 to 0.000820119
Heightened Def Con from 0.000820119 to 0.00082012
Heightened Def Con from 0.00082012 to 0.000820122
Heightened Def Con from 0.000820156 to 0.000820158
Heightened Def Con from 0.00082016 to 0.000820162
Heightened Def Con from 0.000820163 to 0.000820165
Heightened Def Con from 0.000820166 to 0.000820167
Heightened Def Con from 0.00082068 to 0.00082068
Heightened Def Con from 0.00082068 to 0.000820681
Heightened Def Con from 0.00082203 to 0.000822031
Heightened Def Con from 0.000822047 to 0.000822048
Heightened Def Con from 0.000822195 to 0.000822195
Heightened Def Con from 0.000822216 to 0.000822217
Heightened Def Con from 0.000822219 to 0.000822221
Heightened Def Con from 0.000822223 to 0.000822224
Heightened Def Con from 0.00082223 to 0.000822231
Heightened Def Con from 0.000822232 to 0.000822232
Heightened Def Con from 0.000822233 to 0.000822233
Heightened Def Con from 0.000822233 to 0.000822233
Heightened Def Con from 0.000823487 to 0.000823487
Heightened Def Con from 0.000823488 to 0.000823488
Heightened Def Con from 0.000823489 to 0.00082349
Heightened Def Con from 0.00082349 to 0.000823491
Heightened Def Con from 0.000823494 to 0.000823494
Heightened Def Con from 0.000823494 to 0.000823495
Heightened Def Con from 0.000823495 to 0.000823496
Heightened Def Con from 0.000825024 to 0.000825024
Heightened Def Con from 0.000825031 to 0.000825031
Heightened Def Con from 0.000825031 to 0.000825032
Heightened Def Con from 0.000825032 to 0.000825034
Heightened Def Con from 0.000825069 to 0.000825069
Heightened Def Con from 0.000825069 to 0.000825069
Heightened Def Con from 0.000825069 to 0.000825069
Heightened Def Con from 0.00082507 to 0.000825072
Heightened Def Con from 0.000825075 to 0.000825076
Heightened Def Con from 0.000825191 to 0.000825191
Heightened Def Con from 0.000825191 to 0.000825191
Heightened Def Con from 0.000825191 to 0.000825191
Heightened Def Con from 0.000825192 to 0.000825194
Heightened Def Con from 0.000825208 to 0.000825208
Heightened Def Con from 0.000825209 to 0.00082521
Heightened Def Con from 0.00082521 to 0.00082521
Heightened Def Con from 0.000825211 to 0.000825211
Heightened Def Con from 0.000825211 to 0.000825212
Heightened Def Con from 0.000825212 to 0.000825212
Heightened Def Con from 0.000825213 to 0.000825215
Heightened Def Con from 0.000835233 to 0.000835235
Heightened Def Con from 0.000835243 to 0.000835243
Heightened Def Con from 0.000835261 to 0.000835261
Heightened Def Con from 0.000835261 to 0.000835261
Heightened Def Con from 0.000835261 to 0.000835261
Heightened Def Con from 0.000835262 to 0.000835263
Heightened Def Con from 0.000835265 to 0.000835265
Heightened Def Con from 0.000835265 to 0.000835265
Heightened Def Con from 0.000835265 to 0.000835266
Heightened Def Con from 0.000835266 to 0.000835267
Heightened Def Con from 0.000835337 to 0.000835337
Heightened Def Con from 0.000835337 to 0.000835337
Heightened Def Con from 0.000835337 to 0.000835337
Heightened Def Con from 0.000835337 to 0.000835338
Heightened Def Con from 0.000835338 to 0.000835339
Heightened Def Con from 0.000835353 to 0.000835354
Heightened Def Con from 0.000835356 to 0.000835357
Heightened Def Con from 0.000835582 to 0.000835583
Heightened Def Con from 0.000835589 to 0.00083559
Heightened Def Con from 0.00083559 to 0.00083559
Heightened Def Con from 0.00083559 to 0.000835591
Heightened Def Con from 0.000835591 to 0.000835592
Heightened Def Con from 0.000835594 to 0.000835594
Heightened Def Con from 0.000835621 to 0.000835622
Heightened Def Con from 0.000835628 to 0.000835629
Heightened Def Con from 0.000835629 to 0.00083563
Heightened Def Con from 0.000835633 to 0.000835633
Heightened Def Con from 0.000835787 to 0.000835787
Heightened Def Con from 0.000835787 to 0.000835787
Heightened Def Con from 0.00083579 to 0.000835791
Heightened Def Con from 0.000835792 to 0.000835794
Heightened Def Con from 0.000835796 to 0.000835797
Heightened Def Con from 0.000835797 to 0.000835798
Heightened Def Con from 0.000835798 to 0.000835799
Heightened Def Con from 0.000835804 to 0.000835805
Heightened Def Con from 0.000835821 to 0.000835822
Heightened Def Con from 0.000835823 to 0.000835825
Heightened Def Con from 0.000835827 to 0.000835827
Heightened Def Con from 0.000835828 to 0.000835829
Heightened Def Con from 0.00083583 to 0.000835831
Heightened Def Con from 0.000835836 to 0.000835836
Heightened Def Con from 0.000835836 to 0.000835837
Heightened Def Con from 0.000835837 to 0.000835837
Heightened Def Con from 0.000835838 to 0.00083584
Heightened Def Con from 0.000835846 to 0.000835847
Heightened Def Con from 0.000835847 to 0.000835849
Heightened Def Con from 0.000836505 to 0.000836505
Heightened Def Con from 0.000836505 to 0.000836506
Heightened Def Con from 0.000836515 to 0.000836515
Heightened Def Con from 0.000836516 to 0.000836517
Heightened Def Con from 0.000836646 to 0.000836646
Heightened Def Con from 0.000836647 to 0.000836647
Heightened Def Con from 0.000836652 to 0.000836653
Heightened Def Con from 0.000837494 to 0.000837495
Heightened Def Con from 0.000837503 to 0.000837504
Heightened Def Con from 0.000837561 to 0.000837562
Heightened Def Con from 0.000837565 to 0.000837566
Heightened Def Con from 0.000837591 to 0.000837592
Heightened Def Con from 0.000837592 to 0.000837593
Heightened Def Con from 0.000837594 to 0.000837594
Heightened Def Con from 0.000837594 to 0.000837594
Heightened Def Con from 0.000837595 to 0.000837595
Heightened Def Con from 0.000837595 to 0.000837595
Heightened Def Con from 0.000837959 to 0.000837961
Heightened Def Con from 0.000837965 to 0.000837966
Heightened Def Con from 0.000843474 to 0.000843474
Heightened Def Con from 0.000843475 to 0.000843476
Heightened Def Con from 0.0009527 to 0.000952702
Heightened Def Con from 0.000952734 to 0.000952735
Heightened Def Con from 0.000952749 to 0.000952749
Heightened Def Con from 0.00095275 to 0.000952751
Heightened Def Con from 0.000952909 to 0.00095291
Heightened Def Con from 0.000952954 to 0.000952954
Heightened Def Con from 0.000952961 to 0.000952962
Heightened Def Con from 0.000953027 to 0.000953028
Heightened Def Con from 0.000953843 to 0.000953843
Heightened Def Con from 0.000953843 to 0.000953845
Heightened Def Con from 0.000953863 to 0.000953864
Heightened Def Con from 0.000953865 to 0.000953866
Heightened Def Con from 0.00095387 to 0.00095387
Heightened Def Con from 0.000953875 to 0.000953875
Heightened Def Con from 0.000953875 to 0.000953876
Heightened Def Con from 0.000953933 to 0.000953934
Heightened Def Con from 0.000954037 to 0.000954037
Heightened Def Con from 0.000954038 to 0.000954038
Heightened Def Con from 0.000954038 to 0.00095404
Heightened Def Con from 0.000954089 to 0.000954089
Heightened Def Con from 0.00095409 to 0.000954092
Heightened Def Con from 0.000954303 to 0.000954304
Heightened Def Con from 0.000954315 to 0.000954315
Heightened Def Con from 0.000954319 to 0.00095432
Heightened Def Con from 0.000955601 to 0.000955603
Heightened Def Con from 0.000955703 to 0.000955704
Heightened Def Con from 0.000955707 to 0.000955708
Heightened Def Con from 0.000955708 to 0.000955709
Heightened Def Con from 0.000955712 to 0.000955714
Heightened Def Con from 0.000955731 to 0.000955732
Heightened Def Con from 0.000962295 to 0.000962296
Heightened Def Con from 0.00104513 to 0.00104513
Heightened Def Con from 0.00126548 to 0.00126548
Heightened Def Con from 0.00126548 to 0.00126549
Heightened Def Con from 0.00168068 to 0.00168068
Heightened Def Con from 0.0016807 to 0.0016807
Heightened Def Con from 0.0016807 to 0.0016807
Heightened Def Con from 0.0016807 to 0.0016807
Heightened Def Con from 0.0016807 to 0.0016807
Heightened Def Con from 0.0016807 to 0.00168071
Heightened Def Con from 0.00168071 to 0.00168071
Heightened Def Con from 0.00168072 to 0.00168072
Heightened Def Con from 0.00168072 to 0.00168072
Heightened Def Con from 0.00168088 to 0.00168088
Heightened Def Con from 0.00168088 to 0.00168088
Heightened Def Con from 0.00168088 to 0.00168088
Heightened Def Con from 0.00168089 to 0.00168089
Heightened Def Con from 0.00168089 to 0.00168089
Heightened Def Con from 0.00168108 to 0.00168108
Heightened Def Con from 0.00168108 to 0.00168108
Heightened Def Con from 0.00168108 to 0.00168108
Heightened Def Con from 0.00168109 to 0.00168109
Heightened Def Con from 0.00168109 to 0.00168109
Heightened Def Con from 0.00168111 to 0.00168111
Heightened Def Con from 0.00168111 to 0.00168111
Heightened Def Con from 0.00168111 to 0.00168111
Heightened Def Con from 0.00168111 to 0.00168111
Heightened Def Con from 0.00168112 to 0.00168112
Heightened Def Con from 0.00168112 to 0.00168112
Heightened Def Con from 0.00168112 to 0.00168112
Heightened Def Con from 0.00168112 to 0.00168112
Heightened Def Con from 0.00168114 to 0.00168114
Heightened Def Con from 0.0016812 to 0.0016812
Heightened Def Con from 0.00168121 to 0.00168121
Heightened Def Con from 0.00168152 to 0.00168152
Heightened Def Con from 0.00168157 to 0.00168158
Heightened Def Con from 0.00168159 to 0.00168159
Heightened Def Con from 0.00168161 to 0.00168161
Heightened Def Con from 0.00168161 to 0.00168161
Heightened Def Con from 0.00168161 to 0.00168162
Heightened Def Con from 0.00168164 to 0.00168164
Heightened Def Con from 0.00168166 to 0.00168166
Heightened Def Con from 0.00168212 to 0.00168212
Heightened Def Con from 0.00168212 to 0.00168213
Heightened Def Con from 0.00168213 to 0.00168213
Heightened Def Con from 0.00168213 to 0.00168213
Heightened Def Con from 0.00168223 to 0.00168223
Heightened Def Con from 0.00168227 to 0.00168227
Heightened Def Con from 0.00168228 to 0.00168228
Heightened Def Con from 0.00168228 to 0.00168228
Heightened Def Con from 0.00168228 to 0.00168228
Heightened Def Con from 0.00168229 to 0.00168229
Heightened Def Con from 0.00168231 to 0.00168231
Heightened Def Con from 0.00168231 to 0.00168231
Heightened Def Con from 0.00168231 to 0.00168231
Heightened Def Con from 0.00168233 to 0.00168233
Heightened Def Con from 0.00168233 to 0.00168234
Heightened Def Con from 0.00168234 to 0.00168234
Heightened Def Con from 0.00168239 to 0.0016824
Heightened Def Con from 0.00168241 to 0.00168241
Heightened Def Con from 0.00168242 to 0.00168242
Heightened Def Con from 0.00168242 to 0.00168242
Heightened Def Con from 0.00177898 to 0.00177898
Heightened Def Con from 0.00177898 to 0.00177898
Heightened Def Con from 0.00177898 to 0.00177899
Heightened Def Con from 0.00177899 to 0.00177899
Heightened Def Con from 0.00177902 to 0.00177902
Heightened Def Con from 0.00177903 to 0.00177903
Heightened Def Con from 0.00177903 to 0.00177903
Heightened Def Con from 0.00177905 to 0.00177905
Heightened Def Con from 0.00177905 to 0.00177905
Heightened Def Con from 0.00177906 to 0.00177906
Heightened Def Con from 0.00177906 to 0.00177906
Heightened Def Con from 0.00177908 to 0.00177908
Heightened Def Con from 0.00177908 to 0.00177908
Heightened Def Con from 0.00177908 to 0.00177908
Heightened Def Con from 0.00177909 to 0.00177909
Heightened Def Con from 0.00177909 to 0.00177909
Heightened Def Con from 0.00177909 to 0.00177909
Heightened Def Con from 0.00177909 to 0.00177909
Heightened Def Con from 0.00177983 to 0.00177983
Heightened Def Con from 0.00177984 to 0.00177984
Heightened Def Con from 0.00177984 to 0.00177984
Heightened Def Con from 0.00177984 to 0.00177984
Heightened Def Con from 0.00177984 to 0.00177984
Heightened Def Con from 0.00177984 to 0.00177984
Heightened Def Con from 0.00177984 to 0.00177984
Heightened Def Con from 0.00177987 to 0.00177987
Heightened Def Con from 0.00177987 to 0.00177988
Heightened Def Con from 0.00178001 to 0.00178001
Heightened Def Con from 0.00178002 to 0.00178002
Heightened Def Con from 0.00178002 to 0.00178002
Heightened Def Con from 0.00178207 to 0.00178207
Heightened Def Con from 0.00178207 to 0.00178208
Heightened Def Con from 0.00178208 to 0.00178208
Heightened Def Con from 0.00178209 to 0.00178209
Heightened Def Con from 0.00178209 to 0.00178209
Heightened Def Con from 0.00178212 to 0.00178212
Heightened Def Con from 0.00178212 to 0.00178212
Heightened Def Con from 0.00178212 to 0.00178212
Heightened Def Con from 0.00178227 to 0.00178227
Heightened Def Con from 0.00178227 to 0.00178227
Heightened Def Con from 0.00178228 to 0.00178228
Heightened Def Con from 0.00178234 to 0.00178234
Heightened Def Con from 0.00178234 to 0.00178234
Heightened Def Con from 0.00178234 to 0.00178234
Heightened Def Con from 0.00178234 to 0.00178234
Heightened Def Con from 0.00178234 to 0.00178234
Heightened Def Con from 0.00178234 to 0.00178234
Heightened Def Con from 0.00178256 to 0.00178256
Heightened Def Con from 0.00178259 to 0.00178259
Heightened Def Con from 0.00178259 to 0.0017826
Heightened Def Con from 0.00178265 to 0.00178265
Heightened Def Con from 0.00178266 to 0.00178266
Heightened Def Con from 0.00178266 to 0.00178266
Heightened Def Con from 0.00178295 to 0.00178295
Heightened Def Con from 0.00178295 to 0.00178295
Heightened Def Con from 0.00178295 to 0.00178295
Heightened Def Con from 0.00178296 to 0.00178296
Heightened Def Con from 0.00178297 to 0.00178297
Heightened Def Con from 0.00178297 to 0.00178297
Heightened Def Con from 0.00178297 to 0.00178297
Heightened Def Con from 0.00178297 to 0.00178297
Heightened Def Con from 0.00178297 to 0.00178297
Heightened Def Con from 0.00178297 to 0.00178297
Heightened Def Con from 0.00178297 to 0.00178297
Heightened Def Con from 0.00178301 to 0.00178301
Heightened Def Con from 0.00178301 to 0.00178301
Heightened Def Con from 0.00178301 to 0.00178301
Heightened Def Con from 0.00178301 to 0.00178301
Heightened Def Con from 0.00178303 to 0.00178303
Heightened Def Con from 0.00178303 to 0.00178303
Heightened Def Con from 0.00178304 to 0.00178304
Heightened Def Con from 0.00178306 to 0.00178306
Heightened Def Con from 0.00178307 to 0.00178307
Heightened Def Con from 0.00178309 to 0.00178309
Heightened Def Con from 0.00178309 to 0.00178309
Heightened Def Con from 0.00178312 to 0.00178312
Heightened Def Con from 0.00178316 to 0.00178316
Heightened Def Con from 0.00178316 to 0.00178317
Heightened Def Con from 0.00178317 to 0.00178317
Heightened Def Con from 0.00178318 to 0.00178318
Heightened Def Con from 0.00178318 to 0.00178318
Heightened Def Con from 0.00178319 to 0.00178319
Heightened Def Con from 0.00178322 to 0.00178322
Heightened Def Con from 0.00178323 to 0.00178323
Heightened Def Con from 0.00178323 to 0.00178323
Heightened Def Con from 0.00178323 to 0.00178324
Heightened Def Con from 0.00178325 to 0.00178325
Heightened Def Con from 0.00178325 to 0.00178325
Heightened Def Con from 0.0017833 to 0.0017833
Heightened Def Con from 0.0017833 to 0.0017833
Heightened Def Con from 0.00178331 to 0.00178331
Heightened Def Con from 0.00178331 to 0.00178331
Heightened Def Con from 0.00178331 to 0.00178331
Heightened Def Con from 0.00178331 to 0.00178331
Heightened Def Con from 0.00178334 to 0.00178334
Heightened Def Con from 0.00178335 to 0.00178335
Heightened Def Con from 0.00178335 to 0.00178335
Heightened Def Con from 0.00178335 to 0.00178335
Heightened Def Con from 0.00178335 to 0.00178335
Heightened Def Con from 0.00178335 to 0.00178335
Heightened Def Con from 0.00178344 to 0.00178345
Heightened Def Con from 0.00178348 to 0.00178348
Heightened Def Con from 0.00178348 to 0.00178348
Heightened Def Con from 0.00178348 to 0.00178348
Heightened Def Con from 0.00178348 to 0.00178348
Heightened Def Con from 0.0017835 to 0.0017835
Heightened Def Con from 0.0017835 to 0.0017835
Heightened Def Con from 0.0017835 to 0.0017835
Heightened Def Con from 0.0017835 to 0.0017835
Heightened Def Con from 0.00178571 to 0.00178571
Heightened Def Con from 0.00178641 to 0.00178642
Heightened Def Con from 0.00178642 to 0.00178642
Heightened Def Con from 0.00178642 to 0.00178642
Heightened Def Con from 0.00178657 to 0.00178657
Heightened Def Con from 0.0017866 to 0.00178661
Heightened Def Con from 0.00178691 to 0.00178691
Heightened Def Con from 0.00178691 to 0.00178691
Heightened Def Con from 0.00178691 to 0.00178691
Heightened Def Con from 0.00178692 to 0.00178692
Heightened Def Con from 0.00178692 to 0.00178692
Heightened Def Con from 0.00178695 to 0.00178695
Heightened Def Con from 0.00178696 to 0.00178696
Heightened Def Con from 0.00178697 to 0.00178697
Heightened Def Con from 0.00178697 to 0.00178697
Heightened Def Con from 0.00178697 to 0.00178697
Heightened Def Con from 0.00178698 to 0.00178698
Heightened Def Con from 0.00178698 to 0.00178698
Heightened Def Con from 0.00178704 to 0.00178704
Heightened Def Con from 0.00178705 to 0.00178705
Heightened Def Con from 0.00178705 to 0.00178705
Heightened Def Con from 0.00178705 to 0.00178705
Heightened Def Con from 0.00178706 to 0.00178707
Heightened Def Con from 0.00178707 to 0.00178707
Heightened Def Con from 0.00178707 to 0.00178707
Heightened Def Con from 0.00178707 to 0.00178707
Heightened Def Con from 0.0017871 to 0.00178711
Heightened Def Con from 0.00178714 to 0.00178715
Heightened Def Con from 0.00178715 to 0.00178715
Heightened Def Con from 0.00178721 to 0.00178721
Heightened Def Con from 0.00178721 to 0.00178721
Heightened Def Con from 0.00178721 to 0.00178721
Heightened Def Con from 0.00178721 to 0.00178721
Heightened Def Con from 0.00178724 to 0.00178724
Heightened Def Con from 0.00178724 to 0.00178724
Heightened Def Con from 0.00178725 to 0.00178725
Heightened Def Con from 0.00178725 to 0.00178725
Heightened Def Con from 0.00178725 to 0.00178725
Heightened Def Con from 0.00178725 to 0.00178725
Heightened Def Con from 0.00178726 to 0.00178726
Heightened Def Con from 0.00178729 to 0.00178729
Heightened Def Con from 0.00178732 to 0.00178732
Heightened Def Con from 0.00178732 to 0.00178732
Heightened Def Con from 0.00178732 to 0.00178732
Heightened Def Con from 0.00178736 to 0.00178736
Heightened Def Con from 0.00178736 to 0.00178736
Heightened Def Con from 0.00178736 to 0.00178736
Heightened Def Con from 0.00178738 to 0.00178738
Heightened Def Con from 0.0017874 to 0.0017874
Heightened Def Con from 0.0017874 to 0.0017874
Heightened Def Con from 0.0017874 to 0.0017874
Heightened Def Con from 0.00178744 to 0.00178744
Heightened Def Con from 0.00178745 to 0.00178745
Heightened Def Con from 0.00178745 to 0.00178745
Heightened Def Con from 0.00178745 to 0.00178745
Heightened Def Con from 0.00178745 to 0.00178745
Heightened Def Con from 0.00178745 to 0.00178745
Heightened Def Con from 0.00178745 to 0.00178745
Heightened Def Con from 0.00178745 to 0.00178745
Heightened Def Con from 0.00178746 to 0.00178746
Heightened Def Con from 0.00178746 to 0.00178746
Heightened Def Con from 0.00178746 to 0.00178746
Heightened Def Con from 0.00178748 to 0.00178748
Heightened Def Con from 0.00178748 to 0.00178748
Heightened Def Con from 0.0017875 to 0.0017875
Heightened Def Con from 0.00178751 to 0.00178751
Heightened Def Con from 0.00178751 to 0.00178751
Heightened Def Con from 0.00178751 to 0.00178751
Heightened Def Con from 0.00178751 to 0.00178751
Heightened Def Con from 0.00178751 to 0.00178751
Heightened Def Con from 0.00178752 to 0.00178752
Heightened Def Con from 0.00178752 to 0.00178752
Heightened Def Con from 0.00178752 to 0.00178752
Heightened Def Con from 0.00178752 to 0.00178752
Heightened Def Con from 0.00178773 to 0.00178773
Heightened Def Con from 0.00178788 to 0.00178788
Heightened Def Con from 0.00178788 to 0.00178788
Heightened Def Con from 0.00178788 to 0.00178788
Heightened Def Con from 0.00178788 to 0.00178789
Heightened Def Con from 0.0017984 to 0.0017984
Heightened Def Con from 0.00179841 to 0.00179841
Heightened Def Con from 0.00179848 to 0.00179848
Heightened Def Con from 0.00179848 to 0.00179848
Heightened Def Con from 0.00179848 to 0.00179848
Heightened Def Con from 0.00179851 to 0.00179851
Heightened Def Con from 0.00179851 to 0.00179851
Heightened Def Con from 0.00179852 to 0.00179852
Heightened Def Con from 0.00179852 to 0.00179852
Heightened Def Con from 0.0017987 to 0.0017987
Heightened Def Con from 0.0017987 to 0.00179871
Heightened Def Con from 0.00179872 to 0.00179872
Heightened Def Con from 0.00179873 to 0.00179873
Heightened Def Con from 0.00179874 to 0.00179874
Heightened Def Con from 0.00179886 to 0.00179886
Heightened Def Con from 0.00179886 to 0.00179886
Heightened Def Con from 0.00179899 to 0.00179899
Heightened Def Con from 0.001799 to 0.001799
Heightened Def Con from 0.001799 to 0.001799
Heightened Def Con from 0.00179906 to 0.00179906
Heightened Def Con from 0.00179907 to 0.00179907
Heightened Def Con from 0.00179907 to 0.00179907
Heightened Def Con from 0.00179907 to 0.00179907
Heightened Def Con from 0.00179907 to 0.00179908
Heightened Def Con from 0.00179908 to 0.00179908
Heightened Def Con from 0.00179914 to 0.00179914
Heightened Def Con from 0.00179927 to 0.00179927
Heightened Def Con from 0.00179928 to 0.00179928
Heightened Def Con from 0.00179928 to 0.00179928
Heightened Def Con from 0.00179928 to 0.00179928
Heightened Def Con from 0.00179928 to 0.00179928
Heightened Def Con from 0.00179928 to 0.00179928
Heightened Def Con from 0.0017993 to 0.0017993
Heightened Def Con from 0.0017993 to 0.0017993
Heightened Def Con from 0.0017993 to 0.0017993
Heightened Def Con from 0.0017993 to 0.0017993
Heightened Def Con from 0.00179931 to 0.00179931
Heightened Def Con from 0.00179935 to 0.00179935
Heightened Def Con from 0.00179935 to 0.00179935
Heightened Def Con from 0.00179938 to 0.00179938
Heightened Def Con from 0.0017994 to 0.0017994
Heightened Def Con from 0.0017994 to 0.0017994
Heightened Def Con from 0.0017994 to 0.0017994
Heightened Def Con from 0.00179941 to 0.00179941
Heightened Def Con from 0.00179941 to 0.00179941
Heightened Def Con from 0.00179941 to 0.00179941
Heightened Def Con from 0.00179941 to 0.00179941
Heightened Def Con from 0.00179942 to 0.00179942
Heightened Def Con from 0.00179959 to 0.00179959
Heightened Def Con from 0.00179974 to 0.00179974
Heightened Def Con from 0.00180003 to 0.00180003
Heightened Def Con from 0.00180006 to 0.00180006
Heightened Def Con from 0.00180067 to 0.00180067
Heightened Def Con from 0.00180067 to 0.00180067
Heightened Def Con from 0.00180067 to 0.00180067
Heightened Def Con from 0.00180076 to 0.00180076
Heightened Def Con from 0.00180089 to 0.00180089
Heightened Def Con from 0.00180089 to 0.0018009
Heightened Def Con from 0.0018009 to 0.0018009
Heightened Def Con from 0.00180091 to 0.00180091
Heightened Def Con from 0.00180091 to 0.00180091
Heightened Def Con from 0.0018012 to 0.0018012
Heightened Def Con from 0.0018012 to 0.0018012
Heightened Def Con from 0.00180124 to 0.00180124
Heightened Def Con from 0.00180124 to 0.00180124
Heightened Def Con from 0.00180139 to 0.00180139
Heightened Def Con from 0.0018014 to 0.0018014
Heightened Def Con from 0.0018014 to 0.0018014
Heightened Def Con from 0.0018014 to 0.0018014
Heightened Def Con from 0.0018014 to 0.0018014
Heightened Def Con from 0.0018014 to 0.0018014
Heightened Def Con from 0.00180144 to 0.00180144
Heightened Def Con from 0.00180148 to 0.00180148
Heightened Def Con from 0.00180148 to 0.00180148
Heightened Def Con from 0.00180148 to 0.00180148
Heightened Def Con from 0.00180149 to 0.00180149
Heightened Def Con from 0.00180149 to 0.00180149
Heightened Def Con from 0.0018015 to 0.0018015
Heightened Def Con from 0.0018015 to 0.0018015
Heightened Def Con from 0.00180157 to 0.00180158
Heightened Def Con from 0.00180349 to 0.0018035
Heightened Def Con from 0.00180354 to 0.00180354
Heightened Def Con from 0.00180354 to 0.00180354
Heightened Def Con from 0.00180354 to 0.00180354
Heightened Def Con from 0.00180354 to 0.00180354
Heightened Def Con from 0.00180354 to 0.00180354
Heightened Def Con from 0.00180354 to 0.00180354
Heightened Def Con from 0.00180354 to 0.00180354
Heightened Def Con from 0.00180354 to 0.00180354
Heightened Def Con from 0.00180355 to 0.00180355
Heightened Def Con from 0.00180363 to 0.00180364
Heightened Def Con from 0.00180364 to 0.00180364
Heightened Def Con from 0.00180364 to 0.00180364
Heightened Def Con from 0.00180365 to 0.00180365
Heightened Def Con from 0.00180365 to 0.00180365
Heightened Def Con from 0.00180365 to 0.00180365
Heightened Def Con from 0.00180365 to 0.00180365
Heightened Def Con from 0.00180365 to 0.00180366
Heightened Def Con from 0.00180375 to 0.00180375
Heightened Def Con from 0.00180377 to 0.00180377
Heightened Def Con from 0.00180379 to 0.00180379
Heightened Def Con from 0.00180379 to 0.00180379
Heightened Def Con from 0.00180379 to 0.00180379
Heightened Def Con from 0.0018038 to 0.0018038
Heightened Def Con from 0.0018038 to 0.0018038
Heightened Def Con from 0.00180381 to 0.00180381
Heightened Def Con from 0.00180381 to 0.00180381
Heightened Def Con from 0.00180381 to 0.00180381
Heightened Def Con from 0.00180381 to 0.00180381
Heightened Def Con from 0.00180383 to 0.00180383
Heightened Def Con from 0.00180383 to 0.00180383
Heightened Def Con from 0.00180384 to 0.00180384
Heightened Def Con from 0.00180384 to 0.00180384
Heightened Def Con from 0.00180599 to 0.00180599
Heightened Def Con from 0.00180614 to 0.00180614
Heightened Def Con from 0.00180614 to 0.00180614
Heightened Def Con from 0.00180614 to 0.00180614
Heightened Def Con from 0.00180614 to 0.00180614
Heightened Def Con from 0.00180614 to 0.00180615
Heightened Def Con from 0.00180616 to 0.00180616
Heightened Def Con from 0.00180616 to 0.00180616
Heightened Def Con from 0.00180616 to 0.00180616
Heightened Def Con from 0.00180616 to 0.00180616
Heightened Def Con from 0.00180616 to 0.00180616
Heightened Def Con from 0.00180617 to 0.00180617
Heightened Def Con from 0.00180617 to 0.00180617
Heightened Def Con from 0.00180617 to 0.00180617
Heightened Def Con from 0.00180619 to 0.00180619
Heightened Def Con from 0.00180619 to 0.00180619
Heightened Def Con from 0.00180619 to 0.00180619
Heightened Def Con from 0.00180619 to 0.00180619
Heightened Def Con from 0.00180621 to 0.00180621
Heightened Def Con from 0.00180621 to 0.00180621
Heightened Def Con from 0.00180621 to 0.00180621
Heightened Def Con from 0.00180621 to 0.00180621
Heightened Def Con from 0.00180621 to 0.00180621
Heightened Def Con from 0.00180621 to 0.00180621
Heightened Def Con from 0.00180621 to 0.00180621
Heightened Def Con from 0.00180628 to 0.00180628
Heightened Def Con from 0.00180643 to 0.00180643
Heightened Def Con from 0.00180643 to 0.00180643
Heightened Def Con from 0.00180643 to 0.00180643
Heightened Def Con from 0.00180644 to 0.00180644
Heightened Def Con from 0.00180644 to 0.00180644
Heightened Def Con from 0.00180645 to 0.00180645
Heightened Def Con from 0.00180645 to 0.00180645
Heightened Def Con from 0.00180645 to 0.00180645
Heightened Def Con from 0.00180646 to 0.00180646
Heightened Def Con from 0.00180646 to 0.00180646
Heightened Def Con from 0.00180647 to 0.00180647
Heightened Def Con from 0.00180647 to 0.00180647
Heightened Def Con from 0.0018065 to 0.0018065
Heightened Def Con from 0.0018065 to 0.0018065
Heightened Def Con from 0.00180658 to 0.00180658
Heightened Def Con from 0.00180675 to 0.00180675
Heightened Def Con from 0.00180675 to 0.00180675
Heightened Def Con from 0.00180675 to 0.00180675
Heightened Def Con from 0.00180675 to 0.00180675
Heightened Def Con from 0.00180676 to 0.00180676
Heightened Def Con from 0.00180676 to 0.00180676
Heightened Def Con from 0.00180676 to 0.00180676
Heightened Def Con from 0.00180676 to 0.00180676
Heightened Def Con from 0.00180677 to 0.00180677
Heightened Def Con from 0.00180678 to 0.00180678
Heightened Def Con from 0.0018068 to 0.0018068
Heightened Def Con from 0.00180681 to 0.00180681
Heightened Def Con from 0.00180682 to 0.00180682
Heightened Def Con from 0.00180682 to 0.00180682
Heightened Def Con from 0.00180714 to 0.00180714
Heightened Def Con from 0.00180714 to 0.00180714
Heightened Def Con from 0.00180715 to 0.00180715
Heightened Def Con from 0.00180722 to 0.00180722
Heightened Def Con from 0.00180918 to 0.00180918
Heightened Def Con from 0.00180918 to 0.00180918
Heightened Def Con from 0.00180918 to 0.00180918
Heightened Def Con from 0.00180918 to 0.00180918
Heightened Def Con from 0.00180918 to 0.00180918
Heightened Def Con from 0.00180918 to 0.00180918
Heightened Def Con from 0.00180919 to 0.00180919
Heightened Def Con from 0.00180919 to 0.00180919
Heightened Def Con from 0.00180923 to 0.00180923
Heightened Def Con from 0.00180924 to 0.00180924
Heightened Def Con from 0.00180924 to 0.00180924
Heightened Def Con from 0.00180925 to 0.00180925
Heightened Def Con from 0.00180933 to 0.00180934
Heightened Def Con from 0.00181088 to 0.00181088
Heightened Def Con from 0.00181089 to 0.00181089
Heightened Def Con from 0.00181089 to 0.00181089
Heightened Def Con from 0.00181092 to 0.00181092
[...]
Heightened Def Con from 0.00965722 to 0.00965722
Heightened Def Con from 0.00965722 to 0.00965722
Heightened Def Con from 0.00965722 to 0.00965722
Heightened Def Con from 0.00965722 to 0.00965723
Heightened Def Con from 0.00965724 to 0.00965724
Heightened Def Con from 0.00965725 to 0.00965725
Heightened Def Con from 0.00965725 to 0.00965725
Heightened Def Con from 0.00965727 to 0.00965727
Heightened Def Con from 0.00965727 to 0.00965727
Heightened Def Con from 0.00965727 to 0.00965727
Heightened Def Con from 0.00965728 to 0.00965728
Heightened Def Con from 0.00965729 to 0.0096573
Heightened Def Con from 0.0096573 to 0.0096573
Heightened Def Con from 0.00965731 to 0.00965732
Heightened Def Con from 0.00965732 to 0.00965732
Heightened Def Con from 0.00965734 to 0.00965734
Heightened Def Con from 0.00965734 to 0.00965734
Heightened Def Con from 0.00965741 to 0.00965741
Heightened Def Con from 0.00965741 to 0.00965741
Heightened Def Con from 0.00965741 to 0.00965741
Heightened Def Con from 0.00965741 to 0.00965741
Heightened Def Con from 0.00965741 to 0.00965741
Heightened Def Con from 0.00965742 to 0.00965742
Heightened Def Con from 0.00965743 to 0.00965743
Heightened Def Con from 0.00965743 to 0.00965743
Heightened Def Con from 0.00965743 to 0.00965743
Heightened Def Con from 0.00965744 to 0.00965744
Heightened Def Con from 0.00965747 to 0.00965747
Heightened Def Con from 0.00970415 to 0.00970415
Heightened Def Con from 0.0097042 to 0.0097042
Heightened Def Con from 0.00970421 to 0.00970421
Heightened Def Con from 0.00970421 to 0.00970421
Heightened Def Con from 0.00970421 to 0.00970421
Heightened Def Con from 0.00970421 to 0.00970421
Heightened Def Con from 0.00970421 to 0.00970421
Heightened Def Con from 0.00970421 to 0.00970421
Heightened Def Con from 0.00970421 to 0.00970421
Heightened Def Con from 0.00970421 to 0.00970422
Heightened Def Con from 0.00970422 to 0.00970422
Heightened Def Con from 0.00970422 to 0.00970422
Heightened Def Con from 0.00970423 to 0.00970423
Heightened Def Con from 0.00970423 to 0.00970423
Heightened Def Con from 0.00970424 to 0.00970424
Heightened Def Con from 0.00970425 to 0.00970425
Heightened Def Con from 0.00970426 to 0.00970426
Heightened Def Con from 0.00970426 to 0.00970426
Heightened Def Con from 0.00970426 to 0.00970426
Heightened Def Con from 0.00970481 to 0.00970481
Heightened Def Con from 0.0097049 to 0.0097049
Heightened Def Con from 0.00970491 to 0.00970492
Heightened Def Con from 0.00970495 to 0.00970495
Heightened Def Con from 0.00970521 to 0.00970521
Heightened Def Con from 0.00970521 to 0.00970521
Heightened Def Con from 0.00970522 to 0.00970522
Heightened Def Con from 0.00970523 to 0.00970523
Heightened Def Con from 0.00970523 to 0.00970523
Heightened Def Con from 0.00970524 to 0.00970524
Heightened Def Con from 0.00970524 to 0.00970524
Heightened Def Con from 0.00970576 to 0.00970576
Heightened Def Con from 0.00970576 to 0.00970576
Heightened Def Con from 0.00970576 to 0.00970577
Heightened Def Con from 0.00970577 to 0.00970577
Heightened Def Con from 0.00970577 to 0.00970577
Heightened Def Con from 0.0097058 to 0.0097058
Heightened Def Con from 0.00970586 to 0.00970586
Heightened Def Con from 0.00970588 to 0.00970588
Heightened Def Con from 0.00970594 to 0.00970594
Heightened Def Con from 0.00970594 to 0.00970594
Heightened Def Con from 0.00970595 to 0.00970595
Heightened Def Con from 0.00970597 to 0.00970597
Heightened Def Con from 0.00970597 to 0.00970597
Heightened Def Con from 0.00970597 to 0.00970597
Heightened Def Con from 0.00970597 to 0.00970597
Heightened Def Con from 0.00970597 to 0.00970597
Heightened Def Con from 0.00970627 to 0.00970627
Heightened Def Con from 0.00970627 to 0.00970627
Heightened Def Con from 0.0097063 to 0.0097063
Heightened Def Con from 0.00970636 to 0.00970636
Heightened Def Con from 0.00970637 to 0.00970637
Heightened Def Con from 0.00970637 to 0.00970637
Heightened Def Con from 0.00970637 to 0.00970637
Heightened Def Con from 0.00970637 to 0.00970637
Heightened Def Con from 0.00970638 to 0.00970638
Heightened Def Con from 0.00970711 to 0.00970711
Heightened Def Con from 0.00970712 to 0.00970712
Heightened Def Con from 0.00970714 to 0.00970714
Heightened Def Con from 0.00970714 to 0.00970714
Heightened Def Con from 0.00970714 to 0.00970715
Heightened Def Con from 0.00970715 to 0.00970715
Heightened Def Con from 0.00970715 to 0.00970715
Heightened Def Con from 0.00970718 to 0.00970718
Heightened Def Con from 0.00970718 to 0.00970718
Heightened Def Con from 0.00970718 to 0.00970718
Heightened Def Con from 0.00970832 to 0.00970832
Heightened Def Con from 0.00970832 to 0.00970832
Heightened Def Con from 0.00970833 to 0.00970833
Heightened Def Con from 0.00971395 to 0.00971395
Heightened Def Con from 0.00971396 to 0.00971396
Heightened Def Con from 0.00971411 to 0.00971412
Heightened Def Con from 0.00971412 to 0.00971413
Heightened Def Con from 0.00971413 to 0.00971413
Heightened Def Con from 0.00971413 to 0.00971413
Heightened Def Con from 0.00971414 to 0.00971414
Heightened Def Con from 0.00971442 to 0.00971443
Heightened Def Con from 0.00971443 to 0.00971443
Heightened Def Con from 0.00971444 to 0.00971444
Heightened Def Con from 0.00971444 to 0.00971444
Heightened Def Con from 0.00971444 to 0.00971444
Heightened Def Con from 0.00971444 to 0.00971444
Heightened Def Con from 0.00971444 to 0.00971444
Heightened Def Con from 0.00971444 to 0.00971444
Heightened Def Con from 0.00971444 to 0.00971444
Heightened Def Con from 0.00971444 to 0.00971445
Heightened Def Con from 0.00971446 to 0.00971446
Heightened Def Con from 0.00971446 to 0.00971446
Heightened Def Con from 0.00971447 to 0.00971447
Heightened Def Con from 0.00971448 to 0.00971448
Heightened Def Con from 0.00971448 to 0.00971448
Heightened Def Con from 0.00971448 to 0.00971449
Heightened Def Con from 0.00971449 to 0.00971449
Heightened Def Con from 0.0097145 to 0.0097145
Heightened Def Con from 0.00971452 to 0.00971452
Heightened Def Con from 0.00971456 to 0.00971456
Heightened Def Con from 0.00971457 to 0.00971457
Heightened Def Con from 0.00971457 to 0.00971457
Heightened Def Con from 0.00971457 to 0.00971457
Heightened Def Con from 0.00971458 to 0.00971458
Heightened Def Con from 0.00971458 to 0.00971458
Heightened Def Con from 0.0097149 to 0.0097149
Heightened Def Con from 0.0097149 to 0.0097149
Heightened Def Con from 0.0097149 to 0.0097149
Heightened Def Con from 0.00971491 to 0.00971491
Heightened Def Con from 0.00971497 to 0.00971498
Heightened Def Con from 0.00971499 to 0.00971499
Heightened Def Con from 0.00971499 to 0.00971499
Heightened Def Con from 0.00971503 to 0.00971503
Heightened Def Con from 0.00971503 to 0.00971503
Heightened Def Con from 0.00971503 to 0.00971503
Heightened Def Con from 0.00971503 to 0.00971503
Heightened Def Con from 0.00971503 to 0.00971503
Heightened Def Con from 0.00971503 to 0.00971503
Heightened Def Con from 0.00971504 to 0.00971504
Heightened Def Con from 0.00971504 to 0.00971504
Heightened Def Con from 0.00971517 to 0.00971517
Heightened Def Con from 0.00971517 to 0.00971517
Heightened Def Con from 0.00971517 to 0.00971517
Heightened Def Con from 0.00971517 to 0.00971517
Heightened Def Con from 0.00971517 to 0.00971517
Heightened Def Con from 0.00971517 to 0.00971517
Heightened Def Con from 0.00971518 to 0.00971518
Heightened Def Con from 0.00971521 to 0.00971521
Heightened Def Con from 0.00971554 to 0.00971554
Heightened Def Con from 0.00971554 to 0.00971555
Heightened Def Con from 0.00971555 to 0.00971555
Heightened Def Con from 0.00971555 to 0.00971555
Heightened Def Con from 0.00971556 to 0.00971556
Heightened Def Con from 0.00971568 to 0.00971568
Heightened Def Con from 0.00971569 to 0.00971569
Heightened Def Con from 0.00971569 to 0.00971569
Heightened Def Con from 0.00971569 to 0.00971569
Heightened Def Con from 0.0097157 to 0.0097157
Heightened Def Con from 0.0097157 to 0.0097157
Heightened Def Con from 0.0097157 to 0.0097157
Heightened Def Con from 0.0097157 to 0.0097157
Heightened Def Con from 0.0097157 to 0.0097157
Heightened Def Con from 0.00971574 to 0.00971574
Heightened Def Con from 0.00971574 to 0.00971574
Heightened Def Con from 0.00971575 to 0.00971575
Heightened Def Con from 0.00971578 to 0.00971578
Heightened Def Con from 0.00971596 to 0.00971596
Heightened Def Con from 0.00971596 to 0.00971596
Heightened Def Con from 0.00971596 to 0.00971596
Heightened Def Con from 0.00971596 to 0.00971596
Heightened Def Con from 0.00971596 to 0.00971596
Heightened Def Con from 0.00971596 to 0.00971597
Heightened Def Con from 0.0097164 to 0.0097164
Heightened Def Con from 0.00971661 to 0.00971661
Heightened Def Con from 0.00971661 to 0.00971661
Heightened Def Con from 0.00971661 to 0.00971661
Heightened Def Con from 0.00971687 to 0.00971687
Heightened Def Con from 0.00971687 to 0.00971687
Heightened Def Con from 0.00971687 to 0.00971687
Heightened Def Con from 0.00971688 to 0.00971688
Heightened Def Con from 0.00971689 to 0.00971689
Heightened Def Con from 0.00971689 to 0.00971689
Heightened Def Con from 0.00971689 to 0.00971689
Heightened Def Con from 0.00971689 to 0.00971689
Heightened Def Con from 0.00971689 to 0.0097169
Heightened Def Con from 0.00971755 to 0.00971755
Heightened Def Con from 0.00971755 to 0.00971755
Heightened Def Con from 0.00971759 to 0.00971759
Heightened Def Con from 0.00971759 to 0.00971759
Heightened Def Con from 0.00971759 to 0.00971759
Heightened Def Con from 0.00971759 to 0.00971759
Heightened Def Con from 0.00971759 to 0.0097176
Heightened Def Con from 0.0097176 to 0.0097176
Heightened Def Con from 0.0097176 to 0.0097176
Heightened Def Con from 0.00971761 to 0.00971761
Heightened Def Con from 0.00971761 to 0.00971761
Heightened Def Con from 0.00971762 to 0.00971762
Heightened Def Con from 0.00971765 to 0.00971765
Heightened Def Con from 0.00971765 to 0.00971765
Heightened Def Con from 0.00971773 to 0.00971773
Heightened Def Con from 0.00971795 to 0.00971795
Heightened Def Con from 0.00971795 to 0.00971795
Heightened Def Con from 0.00971796 to 0.00971796
Heightened Def Con from 0.00971797 to 0.00971797
Heightened Def Con from 0.00971797 to 0.00971797
Heightened Def Con from 0.00971798 to 0.00971798
Heightened Def Con from 0.00971798 to 0.00971798
Heightened Def Con from 0.00971799 to 0.00971799
Heightened Def Con from 0.00971799 to 0.00971799
Heightened Def Con from 0.00971799 to 0.00971799
Heightened Def Con from 0.009718 to 0.009718
Heightened Def Con from 0.00976416 to 0.00976416
Heightened Def Con from 0.00976416 to 0.00976416
Heightened Def Con from 0.00976452 to 0.00976452
Heightened Def Con from 0.00976454 to 0.00976454
Heightened Def Con from 0.00976454 to 0.00976454
Heightened Def Con from 0.00976455 to 0.00976455
Heightened Def Con from 0.00976455 to 0.00976455
Heightened Def Con from 0.00976455 to 0.00976455
Heightened Def Con from 0.00976455 to 0.00976455
Heightened Def Con from 0.00976455 to 0.00976455
Heightened Def Con from 0.00976456 to 0.00976456
Heightened Def Con from 0.00976456 to 0.00976456
Heightened Def Con from 0.00976456 to 0.00976456
Heightened Def Con from 0.00976456 to 0.00976456
Heightened Def Con from 0.00976457 to 0.00976457
Heightened Def Con from 0.00976484 to 0.00976484
Heightened Def Con from 0.00976485 to 0.00976485
Heightened Def Con from 0.00976485 to 0.00976485
Heightened Def Con from 0.00976948 to 0.00976948
Heightened Def Con from 0.00976948 to 0.00976948
Heightened Def Con from 0.00976948 to 0.00976949
Heightened Def Con from 0.00976951 to 0.00976951
Heightened Def Con from 0.00976951 to 0.00976951
Heightened Def Con from 0.00976953 to 0.00976953
Heightened Def Con from 0.00976953 to 0.00976953
Heightened Def Con from 0.00976953 to 0.00976953
Heightened Def Con from 0.00976954 to 0.00976954
Heightened Def Con from 0.00977026 to 0.00977026
Heightened Def Con from 0.00977026 to 0.00977026
Heightened Def Con from 0.00977026 to 0.00977026
Heightened Def Con from 0.00977026 to 0.00977026
Heightened Def Con from 0.00977026 to 0.00977026
Heightened Def Con from 0.00977026 to 0.00977027
Heightened Def Con from 0.00977027 to 0.00977027
Heightened Def Con from 0.00977027 to 0.00977027
Heightened Def Con from 0.00977027 to 0.00977027
Heightened Def Con from 0.00977028 to 0.00977028
Heightened Def Con from 0.00980676 to 0.00980676
Heightened Def Con from 0.00980678 to 0.00980678
Heightened Def Con from 0.00980679 to 0.00980679
Heightened Def Con from 0.00980679 to 0.00980679
Heightened Def Con from 0.0098068 to 0.0098068
Heightened Def Con from 0.00980682 to 0.00980682
Heightened Def Con from 0.0098069 to 0.0098069
Heightened Def Con from 0.0098069 to 0.0098069
Heightened Def Con from 0.00980692 to 0.00980692
Heightened Def Con from 0.00980771 to 0.00980771
Heightened Def Con from 0.00980774 to 0.00980775
Heightened Def Con from 0.00980777 to 0.00980777
Heightened Def Con from 0.00980777 to 0.00980777
Heightened Def Con from 0.00980779 to 0.00980779
Heightened Def Con from 0.00980779 to 0.00980779
Heightened Def Con from 0.00980779 to 0.0098078
Heightened Def Con from 0.0098078 to 0.0098078
Heightened Def Con from 0.0098078 to 0.0098078
Heightened Def Con from 0.0098078 to 0.0098078
Heightened Def Con from 0.0098078 to 0.0098078
Heightened Def Con from 0.0098078 to 0.0098078
Heightened Def Con from 0.0098078 to 0.0098078
Heightened Def Con from 0.0098078 to 0.0098078
Heightened Def Con from 0.00980832 to 0.00980832
Heightened Def Con from 0.00980832 to 0.00980832
Heightened Def Con from 0.00980832 to 0.00980833
Heightened Def Con from 0.00980833 to 0.00980833
Heightened Def Con from 0.00980833 to 0.00980833
Heightened Def Con from 0.00980833 to 0.00980833
Heightened Def Con from 0.00980834 to 0.00980834
Heightened Def Con from 0.00980835 to 0.00980835
Heightened Def Con from 0.00980835 to 0.00980835
Heightened Def Con from 0.00980835 to 0.00980835
Heightened Def Con from 0.00980836 to 0.00980836
Heightened Def Con from 0.00980836 to 0.00980836
Heightened Def Con from 0.00980842 to 0.00980842
Heightened Def Con from 0.00980842 to 0.00980842
Heightened Def Con from 0.00980842 to 0.00980842
Heightened Def Con from 0.00980847 to 0.00980847
Heightened Def Con from 0.0098085 to 0.0098085
Heightened Def Con from 0.00980851 to 0.00980851
Heightened Def Con from 0.00980852 to 0.00980852
Heightened Def Con from 0.00980852 to 0.00980852
Heightened Def Con from 0.00980853 to 0.00980853
Heightened Def Con from 0.00980859 to 0.00980859
Heightened Def Con from 0.00980859 to 0.0098086
Heightened Def Con from 0.00980916 to 0.00980916
Heightened Def Con from 0.00980916 to 0.00980916
Heightened Def Con from 0.00980916 to 0.00980917
Heightened Def Con from 0.00980917 to 0.00980917
Heightened Def Con from 0.00980917 to 0.00980917
Heightened Def Con from 0.00980918 to 0.00980918
Heightened Def Con from 0.00980918 to 0.00980918
Heightened Def Con from 0.00980918 to 0.00980918
Heightened Def Con from 0.00980918 to 0.00980918
Heightened Def Con from 0.00980919 to 0.00980919
Heightened Def Con from 0.00980919 to 0.00980919
Heightened Def Con from 0.0098092 to 0.0098092
Heightened Def Con from 0.0098092 to 0.0098092
Heightened Def Con from 0.0098092 to 0.0098092
Heightened Def Con from 0.0098092 to 0.0098092
Heightened Def Con from 0.00980921 to 0.00980921
Heightened Def Con from 0.00980921 to 0.00980921
Heightened Def Con from 0.00980921 to 0.00980921
Heightened Def Con from 0.00980921 to 0.00980922
Heightened Def Con from 0.00980933 to 0.00980933
Heightened Def Con from 0.00980933 to 0.00980933
Heightened Def Con from 0.00980933 to 0.00980933
Heightened Def Con from 0.00980933 to 0.00980933
Heightened Def Con from 0.00980933 to 0.00980934
Heightened Def Con from 0.00980934 to 0.00980934
Heightened Def Con from 0.00980935 to 0.00980935
Heightened Def Con from 0.00980935 to 0.00980936
Heightened Def Con from 0.00980936 to 0.00980936
Heightened Def Con from 0.00980936 to 0.00980936
Heightened Def Con from 0.00980939 to 0.00980939
Heightened Def Con from 0.00980939 to 0.00980939
Heightened Def Con from 0.00980939 to 0.00980939
Heightened Def Con from 0.00980939 to 0.00980939
Heightened Def Con from 0.00980939 to 0.00980939
Heightened Def Con from 0.0098094 to 0.0098094
Heightened Def Con from 0.0098094 to 0.0098094
Heightened Def Con from 0.00980943 to 0.00980943
Heightened Def Con from 0.00980943 to 0.00980943
Heightened Def Con from 0.00980944 to 0.00980945
Heightened Def Con from 0.00980969 to 0.00980969
Heightened Def Con from 0.00980969 to 0.00980969
Heightened Def Con from 0.00980969 to 0.00980969
Heightened Def Con from 0.0098097 to 0.0098097
Heightened Def Con from 0.00980971 to 0.00980971
Heightened Def Con from 0.00980971 to 0.00980971
Heightened Def Con from 0.00980972 to 0.00980972
Heightened Def Con from 0.00980975 to 0.00980975
Heightened Def Con from 0.00980975 to 0.00980975
Heightened Def Con from 0.00980984 to 0.00980984
Heightened Def Con from 0.00980984 to 0.00980984
Heightened Def Con from 0.00980984 to 0.00980984
Heightened Def Con from 0.00980994 to 0.00980994
Heightened Def Con from 0.00980994 to 0.00980995
Heightened Def Con from 0.00980995 to 0.00980995
Heightened Def Con from 0.00980995 to 0.00980995
Heightened Def Con from 0.00980995 to 0.00980995
Heightened Def Con from 0.00980995 to 0.00980995
Heightened Def Con from 0.00980995 to 0.00980996
Heightened Def Con from 0.00980996 to 0.00980996
Heightened Def Con from 0.00980996 to 0.00980996
Heightened Def Con from 0.00980996 to 0.00980996
Heightened Def Con from 0.00980998 to 0.00980998
Heightened Def Con from 0.00980998 to 0.00980998
Heightened Def Con from 0.00980998 to 0.00980998
Heightened Def Con from 0.00980998 to 0.00980998
Heightened Def Con from 0.00980998 to 0.00980998
Heightened Def Con from 0.00980998 to 0.00980998
Heightened Def Con from 0.00981011 to 0.00981011
Heightened Def Con from 0.00981011 to 0.00981012
Heightened Def Con from 0.00981012 to 0.00981012
Heightened Def Con from 0.00981013 to 0.00981013
Heightened Def Con from 0.00981013 to 0.00981013
Heightened Def Con from 0.00981014 to 0.00981014
Heightened Def Con from 0.00981014 to 0.00981014
Heightened Def Con from 0.00981015 to 0.00981015
Heightened Def Con from 0.00981015 to 0.00981015
Heightened Def Con from 0.00981015 to 0.00981015
Heightened Def Con from 0.00981015 to 0.00981015
Heightened Def Con from 0.00981016 to 0.00981016
Heightened Def Con from 0.00981088 to 0.00981089
Heightened Def Con from 0.00981089 to 0.00981089
Heightened Def Con from 0.00981089 to 0.00981089
Heightened Def Con from 0.00981089 to 0.00981089
Heightened Def Con from 0.00981089 to 0.00981089
Heightened Def Con from 0.0098109 to 0.0098109
Heightened Def Con from 0.0098109 to 0.0098109
Heightened Def Con from 0.00981092 to 0.00981092
Heightened Def Con from 0.00981093 to 0.00981093
Heightened Def Con from 0.00981093 to 0.00981093
Heightened Def Con from 0.009811 to 0.009811
Heightened Def Con from 0.009811 to 0.009811
Heightened Def Con from 0.00981112 to 0.00981112
Heightened Def Con from 0.00981112 to 0.00981112
Heightened Def Con from 0.00981205 to 0.00981205
Heightened Def Con from 0.00981205 to 0.00981205
Heightened Def Con from 0.00981208 to 0.00981208
Heightened Def Con from 0.00981208 to 0.00981208
Heightened Def Con from 0.00981208 to 0.00981208
Heightened Def Con from 0.0098206 to 0.0098206
Heightened Def Con from 0.0098206 to 0.0098206
Heightened Def Con from 0.0098206 to 0.0098206
Heightened Def Con from 0.00982061 to 0.00982061
Heightened Def Con from 0.00982061 to 0.00982061
Heightened Def Con from 0.00982061 to 0.00982062
Heightened Def Con from 0.00982062 to 0.00982062

Date: Wed Sep 18 13:41:35 2024
Total elapsed time: 4.361 seconds.

tnom = 27
temp = 27
method = modified trap
totiter = 1898133
traniter = 1896571
tranpoints = 313813
accept = 193678
rejected = 125871
matrix size = 13
fillins = 0
solver = Normal
Avg thread counts: 1.0/1.0/1.0/1.0
Matrix Compiler1: 676 bytes object code size  0.1/0.1/[0.1]
Matrix Compiler2: off  [0.1]/0.1/0.1

