Circuit: * D:\INGEÑERIA\Circuitos Electronicos II\simulaciones\Draft1.asc

WARNING: Less than two connections to node n006.  This node is used by v4.
Direct Newton iteration for .op point succeeded.
Ignoring empty pin current: Ix(u1:vc+)
Ignoring empty pin current: Ix(u1:vc-)
Ignoring empty pin current: Ix(u1:vout+)
Ignoring empty pin current: Ix(u1:vout-)
Ignoring empty pin current: Ix(u2:a)
Ignoring empty pin current: Ix(u2:c)
Ignoring empty pin current: Ix(u1:vc+)
Ignoring empty pin current: Ix(u1:vc-)
Ignoring empty pin current: Ix(u1:vout+)
Ignoring empty pin current: Ix(u1:vout-)
Ignoring empty pin current: Ix(u2:a)
Ignoring empty pin current: Ix(u2:c)

Date: Mon Sep 16 18:34:03 2024
Total elapsed time: 0.121 seconds.

tnom = 27
temp = 27
method = modified trap
totiter = 2090
traniter = 2082
tranpoints = 1042
accept = 1042
rejected = 0
matrix size = 31
fillins = 15
solver = Normal
Avg thread counts: 1.2/1.4/1.4/1.2
Matrix Compiler1: 3.08 KB object code size  0.8/0.4/[0.2]
Matrix Compiler2: 3.03 KB object code size  0.4/0.5/[0.2]

