Circuit: * D:\INGEÑERIA\Circuitos Electronicos II\simulaciones\Draft1.asc

Direct Newton iteration for .op point succeeded.
Ignoring empty pin current: Ix(u1:vc+)
Ignoring empty pin current: Ix(u1:vc-)
Ignoring empty pin current: Ix(u1:vout+)
Ignoring empty pin current: Ix(u1:vout-)
Ignoring empty pin current: Ix(u2:a)
Ignoring empty pin current: Ix(u2:c)
Ignoring empty pin current: Ix(u1:vc+)
Ignoring empty pin current: Ix(u1:vc-)
Ignoring empty pin current: Ix(u1:vout+)
Ignoring empty pin current: Ix(u1:vout-)
Ignoring empty pin current: Ix(u2:a)
Ignoring empty pin current: Ix(u2:c)

Date: Mon Sep 16 15:46:10 2024
Total elapsed time: 0.114 seconds.

tnom = 27
temp = 27
method = modified trap
totiter = 2097
traniter = 2082
tranpoints = 1042
accept = 1042
rejected = 0
matrix size = 32
fillins = 27
solver = Normal
Avg thread counts: 1.2/1.4/1.4/1.2
Matrix Compiler1: 3.83 KB object code size  0.8/0.6/[0.3]
Matrix Compiler2: 3.42 KB object code size  0.4/0.6/[0.2]

