Circuit: * D:\INGEÑERIA\Circuitos Electronicos II\simulaciones\ej4tp2.asc

WARNING: Node NC_02 is floating.

WARNING: Less than two connections to node nc_01.  This node is used by v3.
WARNING: Less than two connections to node nc_02.  This node is used by v3.
Direct Newton iteration for .op point succeeded.

Date: Mon Sep 16 15:28:16 2024
Total elapsed time: 0.053 seconds.

tnom = 27
temp = 27
method = modified trap
totiter = 2093
traniter = 2082
tranpoints = 1042
accept = 1042
rejected = 0
matrix size = 15
fillins = 8
solver = Normal
Avg thread counts: 1.2/1.4/1.4/1.2
Matrix Compiler1: 1.13 KB object code size  0.2/0.3/[0.1]
Matrix Compiler2: off  [0.1]/0.3/0.1

