Circuit: * D:\INGEÑERIA\Circuitos Electronicos II\trabajos practicos\TeX\TP2 - Ampliaudio con bootstraping\simus\Draft2.asc

Number of points per decade reduced from 1000000 to 14135.
.OP point found by inspection.

Date: Sun Sep 29 19:23:05 2024
Total elapsed time: 0.161 seconds.

tnom = 27
temp = 27
method = trap
totiter = 0
traniter = 0
tranpoints = 0
accept = 0
rejected = 0
matrix size = 3
fillins = 1
solver = Normal
Avg thread counts: 6.0/0.0/0.0/1.0
Matrix Compiler1:       6 opcodes
Matrix Compiler2:      16 opcodes
