Circuit: * D:\INGEÑERIA\Circuitos Electronicos II\trabajos practicos\TeX\TP2 - Ampliaudio con bootstraping\simus\Rectificador con regulador.asc

.OP point found by inspection.

Date: Mon Oct  7 10:30:21 2024
Total elapsed time: 0.160 seconds.

tnom = 27
temp = 27
method = modified trap
totiter = 9000
traniter = 9000
tranpoints = 2169
accept = 1707
rejected = 462
matrix size = 43
fillins = 51
solver = Normal
Avg thread counts: 1.0/1.2/1.2/1.0
Matrix Compiler1: 10.75 KB object code size  1.5/1.1/[0.4]
Matrix Compiler2: 5.79 KB object code size  0.5/0.6/[0.2]

