Circuit: * D:\INGEÑERIA\Circuitos Electronicos II\trabajos practicos\TeX\TP2 - Ampliaudio con bootstraping\simus\Rectificador.asc

.OP point found by inspection.

Date: Sat Sep 28 14:05:36 2024
Total elapsed time: 0.147 seconds.

tnom = 27
temp = 27
method = modified trap
totiter = 8038
traniter = 8038
tranpoints = 2170
accept = 1649
rejected = 521
matrix size = 43
fillins = 51
solver = Normal
Avg thread counts: 1.1/3.0/1.2/1.1
Matrix Compiler1: 10.75 KB object code size  1.7/1.3/[0.4]
Matrix Compiler2: 5.79 KB object code size  0.5/0.7/[0.3]

